@<TRIPOS>MOLECULE
2XQJ
42 42 1 0 0 
SMALL
USER_CHARGES


@<TRIPOS>ATOM
  1 C      -19.8910   -39.3910   -24.3820 C.ar  1 <1>  -0.1710 
  2 O      -19.2960   -38.9530   -23.3270 O.3   1 <1>  -0.8290 
  3 C      -20.8940   -38.6340   -25.0320 C.ar  1 <1>  -0.1440 
  4 C      -21.3410   -37.3240   -24.4400 C.3   1 <1>   0.4860 
  5 H1     -22.1230   -36.9080   -25.0610 H     1 <1>   0.0800 
  6 H2     -20.5220   -36.6240   -24.5400 H     1 <1>   0.0800 
  7 N      -21.7750   -37.4410   -23.0200 N.4   1 <1>  -0.9590 
  8 H      -21.0050   -37.9280   -22.5730 H     1 <1>   0.4500 
  9 C      -21.9120   -36.1110   -22.3820 C.3   1 <1>   0.2630 
 10 H1     -22.1890   -36.1710   -21.3390 H     1 <1>   0.0800 
 11 H2     -22.6510   -35.4790   -22.8560 H     1 <1>   0.0800 
 12 H3     -20.9860   -35.5590   -22.4020 H     1 <1>   0.0800 
 13 C      -22.9830   -38.3000   -22.8410 C.3   1 <1>   0.2630 
 14 H1     -23.8640   -37.8650   -23.2850 H     1 <1>   0.0800 
 15 H2     -23.2320   -38.4720   -21.8020 H     1 <1>   0.0800 
 16 H3     -22.8770   -39.2800   -23.2870 H     1 <1>   0.0800 
 17 C      -21.4960   -39.1000   -26.1870 C.ar  1 <1>  -0.1500 
 18 H      -22.2370   -38.5090   -26.6630 H     1 <1>   0.1500 
 19 C      -21.1490   -40.3330   -26.7340 C.ar  1 <1>  -0.1440 
 20 C      -21.8220   -40.7470   -28.0250 C.3   1 <1>   0.4870 
 21 H1     -21.2580   -40.2740   -28.8180 H     1 <1>   0.0800 
 22 H2     -22.7700   -40.2320   -28.0680 H     1 <1>   0.0800 
 23 N      -22.0040   -42.2110   -28.3320 N.4   1 <1>  -0.9590 
 24 H      -21.1140   -42.6560   -28.1590 H     1 <1>   0.4500 
 25 C      -23.0450   -42.9150   -27.4910 C.3   1 <1>   0.3430 
 26 H1     -24.0170   -42.4640   -27.6340 H     1 <1>   0.0800 
 27 H2     -23.1880   -43.9220   -27.8560 H     1 <1>   0.0800 
 28 C      -22.7940   -43.0350   -25.9840 C.3   1 <1>  -0.2400 
 29 H1     -23.5780   -43.6400   -25.5300 H     1 <1>   0.0800 
 30 H2     -22.8110   -42.0600   -25.4980 H     1 <1>   0.0800 
 31 H3     -21.8370   -43.5180   -25.7890 H     1 <1>   0.0800 
 32 C      -22.3140   -42.3670   -29.7910 C.3   1 <1>   0.3430 
 33 H1     -23.3450   -42.1230   -29.9830 H     1 <1>   0.0800 
 34 H2     -21.7840   -41.6340   -30.3800 H     1 <1>   0.0800 
 35 C      -22.0450   -43.7380   -30.4030 C.3   1 <1>  -0.2400 
 36 H1     -22.2140   -43.7130   -31.4780 H     1 <1>   0.0800 
 37 H2     -22.6900   -44.4870   -29.9630 H     1 <1>   0.0800 
 38 H3     -21.0260   -44.0550   -30.2420 H     1 <1>   0.0800 
 39 C      -20.1790   -41.1040   -26.0890 C.ar  1 <1>  -0.1500 
 40 H      -19.9010   -42.0460   -26.4830 H     1 <1>   0.1500 
 41 C      -19.5630   -40.6480   -24.9340 C.ar  1 <1>  -0.1500 
 42 H      -18.8290   -41.2440   -24.4560 H     1 <1>   0.1500 
@<TRIPOS>BOND
  1   1   2  1   
  2   1   3  ar  
  3   1  41  ar  
  4   3   4  1   
  5   3  17  ar  
  6   4   5  1   
  7   4   6  1   
  8   4   7  1   
  9   7   8  1   
 10   7   9  1   
 11   7  13  1   
 12   9  10  1   
 13   9  11  1   
 14   9  12  1   
 15  13  14  1   
 16  13  15  1   
 17  13  16  1   
 18  17  18  1   
 19  17  19  ar  
 20  19  20  1   
 21  19  39  ar  
 22  20  21  1   
 23  20  22  1   
 24  20  23  1   
 25  23  24  1   
 26  23  25  1   
 27  23  32  1   
 28  25  26  1   
 29  25  27  1   
 30  25  28  1   
 31  28  29  1   
 32  28  30  1   
 33  28  31  1   
 34  32  33  1   
 35  32  34  1   
 36  32  35  1   
 37  35  36  1   
 38  35  37  1   
 39  35  38  1   
 40  39  40  1   
 41  39  41  ar  
 42  41  42  1   
@<TRIPOS>SUBSTRUCTURE
  1 ****  19 GROUP 4 **** **** 0
@<TRIPOS>PROPERTY_DATA
rseq	|	1
mseq	|	1
S	|	-6.18178033828735
rmsd_refine	|	1.24127542972565
E_conf	|	-121.092056274414
E_place	|	-61.4337844848633
E_score1	|	-10.3640012741089
E_refine	|	-27.7293739318848
E_score2	|	-6.18178033828735
Field_1	|	0
Field_2	|	HM-1-33
E_orig	|	2.07065725326538
PLIF_pronum	|	1
PLIF_raw	|	[[9,9,20,32,2,13,13,13,13,13,13],[3013,3014,1238,1238,6787,1245,1249,1253,1255,1251,1248],[197,197,82,82,438,82,82,82,82,82,82],[1,1,3,3,7,10,10,10,10,10,10],[1,0.9,0.5,0.5,0.8862365425,0.5,0.5,0.5,0.5,0.5,0.5]]
FP:PLIF	|	1 2 3 4
PLIF_ligidx	|	[[20,32],[13,13,13,13,13,13],[9,9],2]

# MOE 2020.09 (io_trps.svl 2020.11)

@<TRIPOS>MOLECULE
2XQJ
42 42 1 0 0 
SMALL
USER_CHARGES


@<TRIPOS>ATOM
  1 C      -19.9550   -38.6410   -23.7370 C.ar  1 <1>  -0.1710 
  2 O      -19.1890   -37.9750   -24.5240 O.3   1 <1>  -0.8290 
  3 C      -21.3210   -38.9010   -24.0320 C.ar  1 <1>  -0.1440 
  4 C      -21.9450   -38.5050   -25.3540 C.3   1 <1>   0.4860 
  5 H1     -23.0190   -38.5290   -25.2330 H     1 <1>   0.0800 
  6 H2     -21.7510   -39.3130   -26.0460 H     1 <1>   0.0800 
  7 N      -21.5140   -37.2040   -25.9450 N.4   1 <1>  -0.9590 
  8 H      -20.5000   -37.2580   -25.9500 H     1 <1>   0.4500 
  9 C      -21.9750   -37.0650   -27.3620 C.3   1 <1>   0.2630 
 10 H1     -21.6090   -36.1660   -27.8370 H     1 <1>   0.0800 
 11 H2     -23.0510   -37.0280   -27.4590 H     1 <1>   0.0800 
 12 H3     -21.6490   -37.8810   -27.9920 H     1 <1>   0.0800 
 13 C      -21.8540   -36.0250   -25.0780 C.3   1 <1>   0.2630 
 14 H1     -22.9170   -35.8810   -24.9520 H     1 <1>   0.0800 
 15 H2     -21.4700   -35.0910   -25.4650 H     1 <1>   0.0800 
 16 H3     -21.4480   -36.1100   -24.0780 H     1 <1>   0.0800 
 17 C      -22.1130   -39.5860   -23.1220 C.ar  1 <1>  -0.1500 
 18 H      -23.1320   -39.7700   -23.3510 H     1 <1>   0.1500 
 19 C      -21.5870   -40.0570   -21.9220 C.ar  1 <1>  -0.1440 
 20 C      -22.4370   -40.8410   -20.9580 C.3   1 <1>   0.4870 
 21 H1     -23.4650   -40.5360   -21.1040 H     1 <1>   0.0800 
 22 H2     -22.2110   -40.5190   -19.9500 H     1 <1>   0.0800 
 23 N      -22.2810   -42.3180   -21.1160 N.4   1 <1>  -0.9590 
 24 H      -21.8980   -42.4430   -22.0440 H     1 <1>   0.4500 
 25 C      -21.2750   -42.9280   -20.1870 C.3   1 <1>   0.3430 
 26 H1     -20.6480   -42.1710   -19.7340 H     1 <1>   0.0800 
 27 H2     -21.7620   -43.3980   -19.3430 H     1 <1>   0.0800 
 28 C      -20.3560   -43.9580   -20.8480 C.3   1 <1>  -0.2400 
 29 H1     -19.7640   -44.4740   -20.0940 H     1 <1>   0.0800 
 30 H2     -19.6800   -43.4680   -21.5490 H     1 <1>   0.0800 
 31 H3     -20.9350   -44.7020   -21.3940 H     1 <1>   0.0800 
 32 C      -23.5850   -43.0400   -21.1180 C.3   1 <1>   0.3430 
 33 H1     -23.4300   -44.0870   -20.9110 H     1 <1>   0.0800 
 34 H2     -24.2230   -42.7110   -20.3080 H     1 <1>   0.0800 
 35 C      -24.3590   -42.9370   -22.4310 C.3   1 <1>  -0.2400 
 36 H1     -25.2520   -43.5560   -22.3850 H     1 <1>   0.0800 
 37 H2     -23.7490   -43.2880   -23.2640 H     1 <1>   0.0800 
 38 H3     -24.6520   -41.9070   -22.6180 H     1 <1>   0.0800 
 39 C      -20.2420   -39.8440   -21.6470 C.ar  1 <1>  -0.1500 
 40 H      -19.8340   -40.2220   -20.7510 H     1 <1>   0.1500 
 41 C      -19.4370   -39.1470   -22.5280 C.ar  1 <1>  -0.1500 
 42 H      -18.4150   -38.9870   -22.2990 H     1 <1>   0.1500 
@<TRIPOS>BOND
  1   1   2  1   
  2   1   3  ar  
  3   1  41  ar  
  4   3   4  1   
  5   3  17  ar  
  6   4   5  1   
  7   4   6  1   
  8   4   7  1   
  9   7   8  1   
 10   7   9  1   
 11   7  13  1   
 12   9  10  1   
 13   9  11  1   
 14   9  12  1   
 15  13  14  1   
 16  13  15  1   
 17  13  16  1   
 18  17  18  1   
 19  17  19  ar  
 20  19  20  1   
 21  19  39  ar  
 22  20  21  1   
 23  20  22  1   
 24  20  23  1   
 25  23  24  1   
 26  23  25  1   
 27  23  32  1   
 28  25  26  1   
 29  25  27  1   
 30  25  28  1   
 31  28  29  1   
 32  28  30  1   
 33  28  31  1   
 34  32  33  1   
 35  32  34  1   
 36  32  35  1   
 37  35  36  1   
 38  35  37  1   
 39  35  38  1   
 40  39  40  1   
 41  39  41  ar  
 42  41  42  1   
@<TRIPOS>SUBSTRUCTURE
  1 ****  17 GROUP 4 **** **** 0
@<TRIPOS>PROPERTY_DATA
rseq	|	1
mseq	|	1
S	|	-6.15503072738647
rmsd_refine	|	1.38621437549591
E_conf	|	-122.809417724609
E_place	|	-59.5490989685059
E_score1	|	-9.65017223358154
E_refine	|	-31.4444313049316
E_score2	|	-6.15503072738647
Field_1	|	0
Field_2	|	HM-1-33
E_orig	|	0.600000023841858
PLIF_pronum	|	1
PLIF_raw	|	[[17,17,17,17,17],[1242,1245,1248,1246,1243],[82,82,82,82,82],[10,10,10,10,10],[0.5,0.5,0.5,0.5,0.5]]
FP:PLIF	|	2
PLIF_ligidx	|	[[17,17,17,17,17]]

# MOE 2020.09 (io_trps.svl 2020.11)

@<TRIPOS>MOLECULE
2XQJ
42 42 1 0 0 
SMALL
USER_CHARGES


@<TRIPOS>ATOM
  1 C      -19.7860   -38.0650   -24.3740 C.ar  1 <1>  -0.1710 
  2 O      -19.4430   -36.8910   -24.7540 O.3   1 <1>  -0.8290 
  3 C      -21.0000   -38.6550   -24.7960 C.ar  1 <1>  -0.1440 
  4 C      -21.8800   -37.9470   -25.7980 C.3   1 <1>   0.4860 
  5 H1     -21.9020   -36.8980   -25.5340 H     1 <1>   0.0800 
  6 H2     -22.8970   -38.2760   -25.6320 H     1 <1>   0.0800 
  7 N      -21.4850   -38.1310   -27.2380 N.4   1 <1>  -0.9590 
  8 H      -20.5890   -37.6640   -27.3270 H     1 <1>   0.4500 
  9 C      -21.2690   -39.5640   -27.6310 C.3   1 <1>   0.2630 
 10 H1     -20.5310   -40.0630   -27.0170 H     1 <1>   0.0800 
 11 H2     -22.1670   -40.1630   -27.5600 H     1 <1>   0.0800 
 12 H3     -20.9220   -39.6720   -28.6500 H     1 <1>   0.0800 
 13 C      -22.4270   -37.4420   -28.1650 C.3   1 <1>   0.2630 
 14 H1     -22.6350   -36.4280   -27.8650 H     1 <1>   0.0800 
 15 H2     -22.0560   -37.3790   -29.1770 H     1 <1>   0.0800 
 16 H3     -23.3890   -37.9340   -28.2290 H     1 <1>   0.0800 
 17 C      -21.3870   -39.8910   -24.3050 C.ar  1 <1>  -0.1500 
 18 H      -22.3110   -40.3080   -24.6130 H     1 <1>   0.1500 
 19 C      -20.5840   -40.5870   -23.4030 C.ar  1 <1>  -0.1440 
 20 C      -21.0800   -41.8710   -22.7860 C.3   1 <1>   0.4870 
 21 H1     -20.2860   -42.2770   -22.1740 H     1 <1>   0.0800 
 22 H2     -21.2030   -42.6010   -23.5750 H     1 <1>   0.0800 
 23 N      -22.3490   -41.7040   -21.9900 N.4   1 <1>  -0.9590 
 24 H      -23.0610   -41.4590   -22.6640 H     1 <1>   0.4500 
 25 C      -22.8080   -42.9830   -21.3590 C.3   1 <1>   0.3430 
 26 H1     -22.7910   -43.7930   -22.0760 H     1 <1>   0.0800 
 27 H2     -22.1250   -43.3090   -20.5850 H     1 <1>   0.0800 
 28 C      -24.2140   -42.9180   -20.7630 C.3   1 <1>  -0.2400 
 29 H1     -24.5060   -43.8940   -20.3830 H     1 <1>   0.0800 
 30 H2     -24.9250   -42.6150   -21.5310 H     1 <1>   0.0800 
 31 H3     -24.2650   -42.2140   -19.9340 H     1 <1>   0.0800 
 32 C      -22.2990   -40.5510   -21.0150 C.3   1 <1>   0.3430 
 33 H1     -22.2340   -39.6050   -21.5370 H     1 <1>   0.0800 
 34 H2     -23.2310   -40.4710   -20.4710 H     1 <1>   0.0800 
 35 C      -21.1640   -40.5920   -19.9900 C.3   1 <1>  -0.2400 
 36 H1     -21.3510   -39.8750   -19.1920 H     1 <1>   0.0800 
 37 H2     -20.2260   -40.3260   -20.4670 H     1 <1>   0.0800 
 38 H3     -21.0580   -41.5830   -19.5510 H     1 <1>   0.0800 
 39 C      -19.3550   -40.0430   -23.0310 C.ar  1 <1>  -0.1500 
 40 H      -18.7220   -40.5700   -22.3660 H     1 <1>   0.1500 
 41 C      -18.9590   -38.8050   -23.5050 C.ar  1 <1>  -0.1500 
 42 H      -18.0300   -38.3960   -23.2040 H     1 <1>   0.1500 
@<TRIPOS>BOND
  1   1   2  1   
  2   1   3  ar  
  3   1  41  ar  
  4   3   4  1   
  5   3  17  ar  
  6   4   5  1   
  7   4   6  1   
  8   4   7  1   
  9   7   8  1   
 10   7   9  1   
 11   7  13  1   
 12   9  10  1   
 13   9  11  1   
 14   9  12  1   
 15  13  14  1   
 16  13  15  1   
 17  13  16  1   
 18  17  18  1   
 19  17  19  ar  
 20  19  20  1   
 21  19  39  ar  
 22  20  21  1   
 23  20  22  1   
 24  20  23  1   
 25  23  24  1   
 26  23  25  1   
 27  23  32  1   
 28  25  26  1   
 29  25  27  1   
 30  25  28  1   
 31  28  29  1   
 32  28  30  1   
 33  28  31  1   
 34  32  33  1   
 35  32  34  1   
 36  32  35  1   
 37  35  36  1   
 38  35  37  1   
 39  35  38  1   
 40  39  40  1   
 41  39  41  ar  
 42  41  42  1   
@<TRIPOS>SUBSTRUCTURE
  1 ****  17 GROUP 4 **** **** 0
@<TRIPOS>PROPERTY_DATA
rseq	|	1
mseq	|	1
S	|	-6.1228551864624
rmsd_refine	|	3.06973361968994
E_conf	|	-124.256454467773
E_place	|	-52.5319175720215
E_score1	|	-10.0366134643555
E_refine	|	-30.624137878418
E_score2	|	-6.1228551864624
Field_1	|	0
Field_2	|	HM-1-33
E_orig	|	2.69822001457214
PLIF_pronum	|	1
PLIF_raw	|	[[7,13],[1782,1962],[115,128],[3,1],[3.3,0.6]]
FP:PLIF	|	5 6 7
PLIF_ligidx	|	[7,7,13]

# MOE 2020.09 (io_trps.svl 2020.11)

@<TRIPOS>MOLECULE
2XQJ
42 42 1 0 0 
SMALL
USER_CHARGES


@<TRIPOS>ATOM
  1 C      -19.4010   -38.9170   -23.7170 C.ar  1 <1>  -0.1710 
  2 O      -18.9520   -37.9670   -22.9800 O.3   1 <1>  -0.8290 
  3 C      -20.2930   -38.6630   -24.7830 C.ar  1 <1>  -0.1440 
  4 C      -20.7100   -37.2400   -25.0760 C.3   1 <1>   0.4860 
  5 H1     -20.8590   -37.1610   -26.1440 H     1 <1>   0.0800 
  6 H2     -19.8540   -36.6030   -24.8920 H     1 <1>   0.0800 
  7 N      -21.9120   -36.7380   -24.3340 N.4   1 <1>  -0.9590 
  8 H      -22.6440   -37.4250   -24.4490 H     1 <1>   0.4500 
  9 C      -21.6650   -36.6100   -22.8610 C.3   1 <1>   0.2630 
 10 H1     -22.5330   -36.2680   -22.3140 H     1 <1>   0.0800 
 11 H2     -20.8750   -35.9100   -22.6260 H     1 <1>   0.0800 
 12 H3     -21.3720   -37.5440   -22.4020 H     1 <1>   0.0800 
 13 C      -22.4000   -35.4570   -24.9110 C.3   1 <1>   0.2630 
 14 H1     -21.6120   -34.7350   -25.0700 H     1 <1>   0.0800 
 15 H2     -23.1310   -34.9620   -24.2860 H     1 <1>   0.0800 
 16 H3     -22.8720   -35.5930   -25.8730 H     1 <1>   0.0800 
 17 C      -20.7550   -39.7050   -25.5750 C.ar  1 <1>  -0.1500 
 18 H      -21.4190   -39.4980   -26.3750 H     1 <1>   0.1500 
 19 C      -20.3370   -41.0180   -25.3520 C.ar  1 <1>  -0.1440 
 20 C      -20.8120   -42.1340   -26.2490 C.3   1 <1>   0.4870 
 21 H1     -20.2080   -43.0130   -26.0630 H     1 <1>   0.0800 
 22 H2     -20.5450   -41.8510   -27.2570 H     1 <1>   0.0800 
 23 N      -22.2780   -42.4400   -26.1340 N.4   1 <1>  -0.9590 
 24 H      -22.7260   -41.5470   -25.9900 H     1 <1>   0.4500 
 25 C      -22.8860   -43.0260   -27.3900 C.3   1 <1>   0.3430 
 26 H1     -22.7460   -44.0950   -27.4250 H     1 <1>   0.0800 
 27 H2     -23.9620   -42.9160   -27.3730 H     1 <1>   0.0800 
 28 C      -22.3810   -42.4690   -28.7260 C.3   1 <1>  -0.2400 
 29 H1     -23.0260   -42.7940   -29.5400 H     1 <1>   0.0800 
 30 H2     -21.3800   -42.8400   -28.9340 H     1 <1>   0.0800 
 31 H3     -22.3560   -41.3800   -28.7110 H     1 <1>   0.0800 
 32 C      -22.5680   -43.2620   -24.9080 C.3   1 <1>   0.3430 
 33 H1     -22.3940   -44.3140   -25.0940 H     1 <1>   0.0800 
 34 H2     -21.8660   -43.0250   -24.1190 H     1 <1>   0.0800 
 35 C      -23.9700   -43.1030   -24.3210 C.3   1 <1>  -0.2400 
 36 H1     -24.0710   -43.7140   -23.4250 H     1 <1>   0.0800 
 37 H2     -24.7260   -43.4220   -25.0380 H     1 <1>   0.0800 
 38 H3     -24.1440   -42.0650   -24.0450 H     1 <1>   0.0800 
 39 C      -19.4640   -41.2780   -24.2960 C.ar  1 <1>  -0.1500 
 40 H      -19.1430   -42.2700   -24.1080 H     1 <1>   0.1500 
 41 C      -19.0050   -40.2520   -23.4890 C.ar  1 <1>  -0.1500 
 42 H      -18.3410   -40.4610   -22.6910 H     1 <1>   0.1500 
@<TRIPOS>BOND
  1   1   2  1   
  2   1   3  ar  
  3   1  41  ar  
  4   3   4  1   
  5   3  17  ar  
  6   4   5  1   
  7   4   6  1   
  8   4   7  1   
  9   7   8  1   
 10   7   9  1   
 11   7  13  1   
 12   9  10  1   
 13   9  11  1   
 14   9  12  1   
 15  13  14  1   
 16  13  15  1   
 17  13  16  1   
 18  17  18  1   
 19  17  19  ar  
 20  19  20  1   
 21  19  39  ar  
 22  20  21  1   
 23  20  22  1   
 24  20  23  1   
 25  23  24  1   
 26  23  25  1   
 27  23  32  1   
 28  25  26  1   
 29  25  27  1   
 30  25  28  1   
 31  28  29  1   
 32  28  30  1   
 33  28  31  1   
 34  32  33  1   
 35  32  34  1   
 36  32  35  1   
 37  35  36  1   
 38  35  37  1   
 39  35  38  1   
 40  39  40  1   
 41  39  41  ar  
 42  41  42  1   
@<TRIPOS>SUBSTRUCTURE
  1 ****  17 GROUP 4 **** **** 0
@<TRIPOS>PROPERTY_DATA
rseq	|	1
mseq	|	1
S	|	-6.07421684265137
rmsd_refine	|	1.63621509075165
E_conf	|	-122.161911010742
E_place	|	-52.6470146179199
E_score1	|	-9.72268962860107
E_refine	|	-29.0746936798096
E_score2	|	-6.07421684265137
Field_1	|	0
Field_2	|	HM-1-33
E_orig	|	2.40000009536743
PLIF_pronum	|	1
PLIF_raw	|	[[9,13,2,2,7,7,7,7,7,7,7,7,7,7,7,7],[3013,3013,6787,6787,3013,1245,1248,1246,1243,1242,1245,1249,1253,1255,1251,1248],[197,197,438,438,197,82,82,82,82,82,82,82,82,82,82,82],[1,1,2,7,7,10,10,10,10,10,10,10,10,10,10,10],[0.6,0.7,7.4,4.562768367,1.747831513,0.5,0.5,0.5,0.5,0.5,0.5,0.5,0.5,0.5,0.5,0.5]]
FP:PLIF	|	2 3 8 9 10 4 11
PLIF_ligidx	|	[[7,7,7,7,7,7,7,7,7,7,7],[9,13],7,2,2,2,2]

# MOE 2020.09 (io_trps.svl 2020.11)

@<TRIPOS>MOLECULE
2XQJ
42 42 1 0 0 
SMALL
USER_CHARGES


@<TRIPOS>ATOM
  1 C      -23.7830   -39.6470   -21.2190 C.ar  1 <1>  -0.1710 
  2 O      -24.2640   -39.9020   -20.0520 O.3   1 <1>  -0.8290 
  3 C      -23.4190   -40.6720   -22.1260 C.ar  1 <1>  -0.1440 
  4 C      -23.6540   -42.1160   -21.7610 C.3   1 <1>   0.4860 
  5 H1     -23.2290   -42.7500   -22.5280 H     1 <1>   0.0800 
  6 H2     -24.7180   -42.2940   -21.8390 H     1 <1>   0.0800 
  7 N      -23.1500   -42.4750   -20.4080 N.4   1 <1>  -0.9590 
  8 H      -23.0130   -41.5710   -19.9650 H     1 <1>   0.4500 
  9 C      -24.1970   -43.1550   -19.5900 C.3   1 <1>   0.2630 
 10 H1     -24.5610   -44.0670   -20.0440 H     1 <1>   0.0800 
 11 H2     -25.0680   -42.5340   -19.4330 H     1 <1>   0.0800 
 12 H3     -23.8530   -43.4320   -18.6020 H     1 <1>   0.0800 
 13 C      -21.8230   -43.1700   -20.4290 C.3   1 <1>   0.2630 
 14 H1     -21.8480   -44.1100   -20.9640 H     1 <1>   0.0800 
 15 H2     -21.4520   -43.4030   -19.4400 H     1 <1>   0.0800 
 16 H3     -21.0490   -42.5830   -20.9040 H     1 <1>   0.0800 
 17 C      -22.8790   -40.3570   -23.3630 C.ar  1 <1>  -0.1500 
 18 H      -22.6160   -41.1370   -24.0310 H     1 <1>   0.1500 
 19 C      -22.7010   -39.0310   -23.7550 C.ar  1 <1>  -0.1440 
 20 C      -22.1750   -38.7420   -25.1380 C.3   1 <1>   0.4870 
 21 H1     -22.9730   -38.9970   -25.8150 H     1 <1>   0.0800 
 22 H2     -21.4070   -39.4660   -25.3710 H     1 <1>   0.0800 
 23 N      -21.7060   -37.3450   -25.4140 N.4   1 <1>  -0.9590 
 24 H      -22.2370   -36.7430   -24.7990 H     1 <1>   0.4500 
 25 C      -20.2710   -37.1260   -25.0650 C.3   1 <1>   0.3430 
 26 H1     -19.6440   -37.8080   -25.6190 H     1 <1>   0.0800 
 27 H2     -19.9490   -36.1470   -25.3940 H     1 <1>   0.0800 
 28 C      -19.9030   -37.2490   -23.5880 C.3   1 <1>  -0.2400 
 29 H1     -20.4370   -36.5000   -23.0040 H     1 <1>   0.0800 
 30 H2     -18.8350   -37.0930   -23.4690 H     1 <1>   0.0800 
 31 H3     -20.1330   -38.2400   -23.1990 H     1 <1>   0.0800 
 32 C      -22.0250   -36.8910   -26.8120 C.3   1 <1>   0.3430 
 33 H1     -23.0320   -36.5030   -26.8600 H     1 <1>   0.0800 
 34 H2     -21.4220   -36.0320   -27.0720 H     1 <1>   0.0800 
 35 C      -21.8840   -37.9150   -27.9450 C.3   1 <1>  -0.2400 
 36 H1     -20.8990   -38.3810   -27.9380 H     1 <1>   0.0800 
 37 H2     -22.6410   -38.6950   -27.8750 H     1 <1>   0.0800 
 38 H3     -22.0240   -37.4070   -28.8960 H     1 <1>   0.0800 
 39 C      -23.0790   -38.0140   -22.8780 C.ar  1 <1>  -0.1500 
 40 H      -22.9830   -36.9970   -23.1560 H     1 <1>   0.1500 
 41 C      -23.6130   -38.3150   -21.6420 C.ar  1 <1>  -0.1500 
 42 H      -23.9260   -37.5310   -21.0120 H     1 <1>   0.1500 
@<TRIPOS>BOND
  1   1   2  1   
  2   1   3  ar  
  3   1  41  ar  
  4   3   4  1   
  5   3  17  ar  
  6   4   5  1   
  7   4   6  1   
  8   4   7  1   
  9   7   8  1   
 10   7   9  1   
 11   7  13  1   
 12   9  10  1   
 13   9  11  1   
 14   9  12  1   
 15  13  14  1   
 16  13  15  1   
 17  13  16  1   
 18  17  18  1   
 19  17  19  ar  
 20  19  20  1   
 21  19  39  ar  
 22  20  21  1   
 23  20  22  1   
 24  20  23  1   
 25  23  24  1   
 26  23  25  1   
 27  23  32  1   
 28  25  26  1   
 29  25  27  1   
 30  25  28  1   
 31  28  29  1   
 32  28  30  1   
 33  28  31  1   
 34  32  33  1   
 35  32  34  1   
 36  32  35  1   
 37  35  36  1   
 38  35  37  1   
 39  35  38  1   
 40  39  40  1   
 41  39  41  ar  
 42  41  42  1   
@<TRIPOS>SUBSTRUCTURE
  1 ****  19 GROUP 4 **** **** 0
@<TRIPOS>PROPERTY_DATA
rseq	|	1
mseq	|	1
S	|	-6.03661060333252
rmsd_refine	|	1.7818455696106
E_conf	|	-118.730903625488
E_place	|	-52.1943321228027
E_score1	|	-9.8183069229126
E_refine	|	-24.296817779541
E_score2	|	-6.03661060333252
Field_1	|	0
Field_2	|	HM-1-33
E_orig	|	1
PLIF_pronum	|	1
PLIF_raw	|	[[1,1,1,1,1,41,41,41,41,41,39,39,39,39,39,19,19,19,19,19,17,17,17,17,17,3,3,3,3,3],[1242,1245,1248,1246,1243,1242,1245,1248,1246,1243,1242,1245,1248,1246,1243,1242,1245,1248,1246,1243,1242,1245,1248,1246,1243,1242,1245,1248,1246,1243],[82,82,82,82,82,82,82,82,82,82,82,82,82,82,82,82,82,82,82,82,82,82,82,82,82,82,82,82,82,82],[10,10,10,10,10,10,10,10,10,10,10,10,10,10,10,10,10,10,10,10,10,10,10,10,10,10,10,10,10,10],[1e-005,1e-005,1e-005,1e-005,1e-005,1e-005,1e-005,1e-005,1e-005,1e-005,1e-005,1e-005,1e-005,1e-005,1e-005,1e-005,1e-005,1e-005,1e-005,1e-005,1e-005,1e-005,1e-005,1e-005,1e-005,1e-005,1e-005,1e-005,1e-005,1e-005]]
FP:PLIF	|	
PLIF_ligidx	|	[]

# MOE 2020.09 (io_trps.svl 2020.11)

@<TRIPOS>MOLECULE
2XQJ
40 41 1 0 0 
SMALL
USER_CHARGES


@<TRIPOS>ATOM
  1 C      -23.3730   -39.9900   -21.1330 C.ar  1 <1>  -0.1710 
  2 O      -23.9720   -40.5490   -20.1420 O.3   1 <1>  -0.8290 
  3 C      -22.4380   -40.6940   -21.9270 C.ar  1 <1>  -0.1440 
  4 C      -22.1750   -42.1580   -21.6310 C.3   1 <1>   0.4870 
  5 H1     -22.2450   -42.2850   -20.5580 H     1 <1>   0.0800 
  6 H2     -21.1340   -42.3590   -21.8440 H     1 <1>   0.0800 
  7 N      -23.0730   -43.1420   -22.3410 N.4   1 <1>  -0.9590 
  8 H      -22.8370   -44.0580   -21.9790 H     1 <1>   0.4500 
  9 C      -22.8480   -43.1920   -23.8220 C.3   1 <1>   0.2630 
 10 H1     -23.0810   -42.2560   -24.3130 H     1 <1>   0.0800 
 11 H2     -23.4540   -43.9400   -24.3150 H     1 <1>   0.0800 
 12 H3     -21.8250   -43.4200   -24.0870 H     1 <1>   0.0800 
 13 C      -24.5190   -42.9270   -22.0040 C.3   1 <1>   0.2630 
 14 H1     -25.1710   -43.6720   -22.4380 H     1 <1>   0.0800 
 15 H2     -24.8920   -41.9690   -22.3410 H     1 <1>   0.0800 
 16 H3     -24.7070   -42.9500   -20.9380 H     1 <1>   0.0800 
 17 C      -21.7910   -40.0600   -22.9800 C.ar  1 <1>  -0.1500 
 18 H      -21.0960   -40.6010   -23.5670 H     1 <1>   0.1500 
 19 C      -22.0530   -38.7230   -23.2830 C.ar  1 <1>  -0.1440 
 20 C      -21.3870   -38.0410   -24.4530 C.3   1 <1>   0.4870 
 21 H1     -20.3440   -38.3260   -24.4780 H     1 <1>   0.0800 
 22 H2     -21.3630   -36.9810   -24.2380 H     1 <1>   0.0800 
 23 N      -22.0640   -38.3060   -25.7590 N.4   1 <1>  -0.9590 
 24 H      -23.0330   -38.5050   -25.5470 H     1 <1>   0.4500 
 25 C      -22.0710   -37.1620   -26.7090 C.3   1 <1>   0.3430 
 26 H1     -22.8490   -36.4370   -26.5130 H     1 <1>   0.0800 
 27 H2     -21.1450   -36.6050   -26.6610 H     1 <1>   0.0800 
 28 C      -22.2070   -37.7450   -28.1110 C.3   1 <1>  -0.1600 
 29 H1     -23.2640   -37.9020   -28.3160 H     1 <1>   0.0800 
 30 H2     -21.7690   -37.0960   -28.8670 H     1 <1>   0.0800 
 31 C      -21.5150   -39.1070   -28.0250 C.3   1 <1>  -0.1600 
 32 H1     -20.4810   -39.0100   -28.3530 H     1 <1>   0.0800 
 33 H2     -22.0270   -39.8540   -28.6320 H     1 <1>   0.0800 
 34 C      -21.5400   -39.4790   -26.5370 C.3   1 <1>   0.3430 
 35 H1     -20.5440   -39.7680   -26.2310 H     1 <1>   0.0800 
 36 H2     -22.1440   -40.3650   -26.3920 H     1 <1>   0.0800 
 37 C      -22.9840   -38.0260   -22.5150 C.ar  1 <1>  -0.1500 
 38 H      -23.2060   -37.0150   -22.7400 H     1 <1>   0.1500 
 39 C      -23.6370   -38.6450   -21.4640 C.ar  1 <1>  -0.1500 
 40 H      -24.3560   -38.1100   -20.9020 H     1 <1>   0.1500 
@<TRIPOS>BOND
  1   1   2  1   
  2   1   3  ar  
  3   1  39  ar  
  4   3   4  1   
  5   3  17  ar  
  6   4   5  1   
  7   4   6  1   
  8   4   7  1   
  9   7   8  1   
 10   7   9  1   
 11   7  13  1   
 12   9  10  1   
 13   9  11  1   
 14   9  12  1   
 15  13  14  1   
 16  13  15  1   
 17  13  16  1   
 18  17  18  1   
 19  17  19  ar  
 20  19  20  1   
 21  19  37  ar  
 22  20  21  1   
 23  20  22  1   
 24  20  23  1   
 25  23  24  1   
 26  23  25  1   
 27  23  34  1   
 28  25  26  1   
 29  25  27  1   
 30  25  28  1   
 31  28  29  1   
 32  28  30  1   
 33  28  31  1   
 34  31  32  1   
 35  31  33  1   
 36  31  34  1   
 37  34  35  1   
 38  34  36  1   
 39  37  38  1   
 40  37  39  ar  
 41  39  40  1   
@<TRIPOS>SUBSTRUCTURE
  1 ****  17 GROUP 4 **** **** 0
@<TRIPOS>PROPERTY_DATA
rseq	|	1
mseq	|	2
S	|	-6.06808710098267
rmsd_refine	|	1.24823260307312
E_conf	|	-89.8497695922852
E_place	|	-54.6386642456055
E_score1	|	-10.5246391296387
E_refine	|	-30.4384250640869
E_score2	|	-6.06808710098267
Field_1	|	1
Field_2	|	HM-1-37
E_orig	|	2.40000009536743
PLIF_pronum	|	1
PLIF_raw	|	[[9,7,1,39,37,19,17,3,1,1,1,1,1,39,39,39,39,39,37,37,37,37,37,19,19,19,19,19,17,17,17,17,17,3,3,3,3,3],[1075,1075,6783,6783,6783,6783,6783,6783,1243,1246,1248,1245,1242,1243,1246,1248,1245,1242,1243,1246,1248,1245,1242,1243,1246,1248,1245,1242,1243,1246,1248,1245,1242,1243,1246,1248,1245,1242],[70,70,438,438,438,438,438,438,82,82,82,82,82,82,82,82,82,82,82,82,82,82,82,82,82,82,82,82,82,82,82,82,82,82,82,82,82,82],[1,7,10,10,10,10,10,10,10,10,10,10,10,10,10,10,10,10,10,10,10,10,10,10,10,10,10,10,10,10,10,10,10,10,10,10,10,10],[0.9,0.5466015008,0.9,0.9,0.9,0.9,0.9,0.9,1e-005,1e-005,1e-005,1e-005,1e-005,1e-005,1e-005,1e-005,1e-005,1e-005,1e-005,1e-005,1e-005,1e-005,1e-005,1e-005,1e-005,1e-005,1e-005,1e-005,1e-005,1e-005,1e-005,1e-005,1e-005,1e-005,1e-005,1e-005,1e-005,1e-005]]
FP:PLIF	|	12 13 14
PLIF_ligidx	|	[9,7,[1,39,37,19,17,3]]

# MOE 2020.09 (io_trps.svl 2020.11)

@<TRIPOS>MOLECULE
2XQJ
40 41 1 0 0 
SMALL
USER_CHARGES


@<TRIPOS>ATOM
  1 C      -21.4740   -38.9740   -26.8710 C.ar  1 <1>  -0.1710 
  2 O      -21.1130   -38.9550   -28.1030 O.3   1 <1>  -0.8290 
  3 C      -21.6320   -40.1900   -26.1740 C.ar  1 <1>  -0.1440 
  4 C      -21.3790   -41.4810   -26.9130 C.3   1 <1>   0.4870 
  5 H1     -20.9150   -42.1870   -26.2390 H     1 <1>   0.0800 
  6 H2     -20.6090   -41.2690   -27.6330 H     1 <1>   0.0800 
  7 N      -22.5750   -42.0650   -27.5940 N.4   1 <1>  -0.9590 
  8 H      -23.2180   -41.2900   -27.7100 H     1 <1>   0.4500 
  9 C      -23.2510   -43.1090   -26.7650 C.3   1 <1>   0.2630 
 10 H1     -22.6030   -43.9440   -26.5420 H     1 <1>   0.0800 
 11 H2     -24.1290   -43.5270   -27.2400 H     1 <1>   0.0800 
 12 H3     -23.5830   -42.7380   -25.8050 H     1 <1>   0.0800 
 13 C      -22.2620   -42.5370   -28.9800 C.3   1 <1>   0.2630 
 14 H1     -23.1320   -42.9110   -29.5030 H     1 <1>   0.0800 
 15 H2     -21.8600   -41.7510   -29.6060 H     1 <1>   0.0800 
 16 H3     -21.5340   -43.3360   -29.0020 H     1 <1>   0.0800 
 17 C      -22.0470   -40.1990   -24.8510 C.ar  1 <1>  -0.1500 
 18 H      -22.1590   -41.1300   -24.3650 H     1 <1>   0.1500 
 19 C      -22.3260   -39.0060   -24.1740 C.ar  1 <1>  -0.1440 
 20 C      -22.8570   -38.9520   -22.7540 C.3   1 <1>   0.4870 
 21 H1     -23.9060   -38.7000   -22.8130 H     1 <1>   0.0800 
 22 H2     -22.4220   -38.0740   -22.2950 H     1 <1>   0.0800 
 23 N      -22.6530   -40.1560   -21.8650 N.4   1 <1>  -0.9590 
 24 H      -21.6890   -40.4460   -21.9510 H     1 <1>   0.4500 
 25 C      -22.9590   -39.8450   -20.4370 C.3   1 <1>   0.3430 
 26 H1     -22.2710   -40.3490   -19.7710 H     1 <1>   0.0800 
 27 H2     -22.8790   -38.7940   -20.1910 H     1 <1>   0.0800 
 28 C      -24.3680   -40.3490   -20.1470 C.3   1 <1>  -0.1600 
 29 H1     -24.5150   -40.6070   -19.0990 H     1 <1>   0.0800 
 30 H2     -25.0620   -39.5700   -20.4560 H     1 <1>   0.0800 
 31 C      -24.5450   -41.5470   -21.0730 C.3   1 <1>  -0.1600 
 32 H1     -25.5680   -41.6110   -21.4460 H     1 <1>   0.0800 
 33 H2     -24.2730   -42.4640   -20.5490 H     1 <1>   0.0800 
 34 C      -23.5550   -41.3120   -22.2170 C.3   1 <1>   0.3430 
 35 H1     -24.1030   -41.1310   -23.1310 H     1 <1>   0.0800 
 36 H2     -23.0040   -42.2240   -22.4030 H     1 <1>   0.0800 
 37 C      -22.1510   -37.7990   -24.8540 C.ar  1 <1>  -0.1500 
 38 H      -22.3520   -36.8820   -24.3620 H     1 <1>   0.1500 
 39 C      -21.7320   -37.7770   -26.1730 C.ar  1 <1>  -0.1500 
 40 H      -21.6120   -36.8530   -26.6770 H     1 <1>   0.1500 
@<TRIPOS>BOND
  1   1   2  1   
  2   1   3  ar  
  3   1  39  ar  
  4   3   4  1   
  5   3  17  ar  
  6   4   5  1   
  7   4   6  1   
  8   4   7  1   
  9   7   8  1   
 10   7   9  1   
 11   7  13  1   
 12   9  10  1   
 13   9  11  1   
 14   9  12  1   
 15  13  14  1   
 16  13  15  1   
 17  13  16  1   
 18  17  18  1   
 19  17  19  ar  
 20  19  20  1   
 21  19  37  ar  
 22  20  21  1   
 23  20  22  1   
 24  20  23  1   
 25  23  24  1   
 26  23  25  1   
 27  23  34  1   
 28  25  26  1   
 29  25  27  1   
 30  25  28  1   
 31  28  29  1   
 32  28  30  1   
 33  28  31  1   
 34  31  32  1   
 35  31  33  1   
 36  31  34  1   
 37  34  35  1   
 38  34  36  1   
 39  37  38  1   
 40  37  39  ar  
 41  39  40  1   
@<TRIPOS>SUBSTRUCTURE
  1 ****  17 GROUP 4 **** **** 0
@<TRIPOS>PROPERTY_DATA
rseq	|	1
mseq	|	2
S	|	-6.01117563247681
rmsd_refine	|	0.950351655483246
E_conf	|	-86.0390243530273
E_place	|	-51.1576385498047
E_score1	|	-11.4101676940918
E_refine	|	-28.2467823028564
E_score2	|	-6.01117563247681
Field_1	|	1
Field_2	|	HM-1-37
E_orig	|	1.47403633594513
PLIF_pronum	|	1
PLIF_raw	|	[[4,7,13,20,20,20,20,20],[1842,1238,1267,1242,1245,1248,1246,1243],[120,82,83,82,82,82,82,82],[1,3,1,10,10,10,10,10],[0.8,0.9,0.5,1,1,1,1,1]]
FP:PLIF	|	1 2 15 16 17
PLIF_ligidx	|	[7,[20,20,20,20,20],[20,20,20,20,20],13,4]

# MOE 2020.09 (io_trps.svl 2020.11)

@<TRIPOS>MOLECULE
2XQJ
40 41 1 0 0 
SMALL
USER_CHARGES


@<TRIPOS>ATOM
  1 C      -20.6250   -38.7730   -24.5000 C.ar  1 <1>  -0.1710 
  2 O      -21.7210   -38.1670   -24.7710 O.3   1 <1>  -0.8290 
  3 C      -20.3590   -40.0710   -24.9880 C.ar  1 <1>  -0.1440 
  4 C      -21.4050   -40.7630   -25.8360 C.3   1 <1>   0.4870 
  5 H1     -22.3790   -40.4560   -25.4780 H     1 <1>   0.0800 
  6 H2     -21.3670   -41.8180   -25.6000 H     1 <1>   0.0800 
  7 N      -21.2830   -40.5430   -27.3170 N.4   1 <1>  -0.9590 
  8 H      -20.3110   -40.6940   -27.5510 H     1 <1>   0.4500 
  9 C      -21.5960   -39.1260   -27.7140 C.3   1 <1>   0.2630 
 10 H1     -21.4680   -38.9440   -28.7720 H     1 <1>   0.0800 
 11 H2     -22.6120   -38.8360   -27.4830 H     1 <1>   0.0800 
 12 H3     -20.9690   -38.4000   -27.2120 H     1 <1>   0.0800 
 13 C      -22.0750   -41.5440   -28.1030 C.3   1 <1>   0.2630 
 14 H1     -21.9940   -41.4030   -29.1720 H     1 <1>   0.0800 
 15 H2     -23.1330   -41.5120   -27.8820 H     1 <1>   0.0800 
 16 H3     -21.7690   -42.5650   -27.9160 H     1 <1>   0.0800 
 17 C      -19.1540   -40.6980   -24.6980 C.ar  1 <1>  -0.1500 
 18 H      -18.9680   -41.6670   -25.0850 H     1 <1>   0.1500 
 19 C      -18.1860   -40.0770   -23.9050 C.ar  1 <1>  -0.1440 
 20 C      -16.8760   -40.8000   -23.6410 C.3   1 <1>   0.4870 
 21 H1     -16.2680   -40.7150   -24.5320 H     1 <1>   0.0800 
 22 H2     -17.1090   -41.8560   -23.6010 H     1 <1>   0.0800 
 23 N      -16.0880   -40.4010   -22.4170 N.4   1 <1>  -0.9590 
 24 H      -16.7420   -40.3080   -21.6510 H     1 <1>   0.4500 
 25 C      -15.0670   -41.4260   -22.0310 C.3   1 <1>   0.3430 
 26 H1     -15.1200   -41.6440   -20.9720 H     1 <1>   0.0800 
 27 H2     -15.2010   -42.3830   -22.5180 H     1 <1>   0.0800 
 28 C      -13.6820   -40.8600   -22.3350 C.3   1 <1>  -0.1600 
 29 H1     -12.9270   -41.2140   -21.6380 H     1 <1>   0.0800 
 30 H2     -13.4140   -41.1380   -23.3550 H     1 <1>   0.0800 
 31 C      -13.8540   -39.3490   -22.2470 C.3   1 <1>  -0.1600 
 32 H1     -13.1960   -38.8260   -22.9400 H     1 <1>   0.0800 
 33 H2     -13.6570   -39.0230   -21.2240 H     1 <1>   0.0800 
 34 C      -15.3300   -39.1090   -22.5630 C.3   1 <1>   0.3430 
 35 H1     -15.4100   -38.7150   -23.5670 H     1 <1>   0.0800 
 36 H2     -15.7130   -38.3240   -21.9240 H     1 <1>   0.0800 
 37 C      -18.4600   -38.8030   -23.4010 C.ar  1 <1>  -0.1500 
 38 H      -17.7640   -38.3120   -22.7810 H     1 <1>   0.1500 
 39 C      -19.6470   -38.1570   -23.6970 C.ar  1 <1>  -0.1500 
 40 H      -19.8350   -37.1860   -23.3170 H     1 <1>   0.1500 
@<TRIPOS>BOND
  1   1   2  1   
  2   1   3  ar  
  3   1  39  ar  
  4   3   4  1   
  5   3  17  ar  
  6   4   5  1   
  7   4   6  1   
  8   4   7  1   
  9   7   8  1   
 10   7   9  1   
 11   7  13  1   
 12   9  10  1   
 13   9  11  1   
 14   9  12  1   
 15  13  14  1   
 16  13  15  1   
 17  13  16  1   
 18  17  18  1   
 19  17  19  ar  
 20  19  20  1   
 21  19  37  ar  
 22  20  21  1   
 23  20  22  1   
 24  20  23  1   
 25  23  24  1   
 26  23  25  1   
 27  23  34  1   
 28  25  26  1   
 29  25  27  1   
 30  25  28  1   
 31  28  29  1   
 32  28  30  1   
 33  28  31  1   
 34  31  32  1   
 35  31  33  1   
 36  31  34  1   
 37  34  35  1   
 38  34  36  1   
 39  37  38  1   
 40  37  39  ar  
 41  39  40  1   
@<TRIPOS>SUBSTRUCTURE
  1 ****  19 GROUP 4 **** **** 0
@<TRIPOS>PROPERTY_DATA
rseq	|	1
mseq	|	2
S	|	-6.01075077056885
rmsd_refine	|	2.65187168121338
E_conf	|	-87.5397720336914
E_place	|	-54.9928092956543
E_score1	|	-9.68007373809814
E_refine	|	-31.4064502716064
E_score2	|	-6.01075077056885
Field_1	|	1
Field_2	|	HM-1-37
E_orig	|	1
PLIF_pronum	|	1
PLIF_raw	|	[[7,1,39,37,19,17,3],[1842,1785,1785,1785,1785,1785,1785],[120,116,116,116,116,116,116],[1,10,10,10,10,10,10],[4.8,0.5,0.5,0.5,0.5,0.5,0.5]]
FP:PLIF	|	18 17 19
PLIF_ligidx	|	[[1,39,37,19,17,3],7,7]

# MOE 2020.09 (io_trps.svl 2020.11)

@<TRIPOS>MOLECULE
2XQJ
40 41 1 0 0 
SMALL
USER_CHARGES


@<TRIPOS>ATOM
  1 C      -21.6140   -36.9490   -24.8360 C.ar  1 <1>  -0.1710 
  2 O      -21.0740   -36.0850   -25.6210 O.3   1 <1>  -0.8290 
  3 C      -21.6820   -38.3130   -25.1900 C.ar  1 <1>  -0.1440 
  4 C      -21.1120   -38.7540   -26.5130 C.3   1 <1>   0.4870 
  5 H1     -20.6540   -39.7220   -26.3630 H     1 <1>   0.0800 
  6 H2     -20.2810   -38.1030   -26.7420 H     1 <1>   0.0800 
  7 N      -22.0730   -38.7910   -27.6500 N.4   1 <1>  -0.9590 
  8 H      -22.9430   -39.1420   -27.2790 H     1 <1>   0.4500 
  9 C      -21.6260   -39.7350   -28.7170 C.3   1 <1>   0.2630 
 10 H1     -20.6470   -39.4890   -29.1060 H     1 <1>   0.0800 
 11 H2     -22.2860   -39.7550   -29.5740 H     1 <1>   0.0800 
 12 H3     -21.5550   -40.7590   -28.3750 H     1 <1>   0.0800 
 13 C      -22.3620   -37.4160   -28.1730 C.3   1 <1>   0.2630 
 14 H1     -23.0920   -37.4110   -28.9670 H     1 <1>   0.0800 
 15 H2     -21.4900   -36.9250   -28.5790 H     1 <1>   0.0800 
 16 H3     -22.7420   -36.7480   -27.4110 H     1 <1>   0.0800 
 17 C      -22.2540   -39.2400   -24.3320 C.ar  1 <1>  -0.1500 
 18 H      -22.3030   -40.2560   -24.6270 H     1 <1>   0.1500 
 19 C      -22.7550   -38.8540   -23.0870 C.ar  1 <1>  -0.1440 
 20 C      -23.3470   -39.8620   -22.1270 C.3   1 <1>   0.4870 
 21 H1     -24.3950   -39.9640   -22.3620 H     1 <1>   0.0800 
 22 H2     -23.3480   -39.4170   -21.1410 H     1 <1>   0.0800 
 23 N      -22.6730   -41.2020   -22.1090 N.4   1 <1>  -0.9590 
 24 H      -22.7290   -41.5790   -23.0450 H     1 <1>   0.4500 
 25 C      -21.2180   -41.1550   -21.7430 C.3   1 <1>   0.3430 
 26 H1     -20.5880   -41.3860   -22.5910 H     1 <1>   0.0800 
 27 H2     -20.8960   -40.1740   -21.4180 H     1 <1>   0.0800 
 28 C      -20.9520   -42.1710   -20.6310 C.3   1 <1>  -0.1600 
 29 H1     -20.0660   -42.7690   -20.8420 H     1 <1>   0.0800 
 30 H2     -20.8370   -41.6390   -19.6860 H     1 <1>   0.0800 
 31 C      -22.2000   -43.0450   -20.5790 C.3   1 <1>  -0.1600 
 32 H1     -22.4370   -43.3460   -19.5600 H     1 <1>   0.0800 
 33 H2     -22.0460   -43.9190   -21.2130 H     1 <1>   0.0800 
 34 C      -23.3090   -42.1950   -21.1920 C.3   1 <1>   0.3430 
 35 H1     -23.8400   -41.7020   -20.3880 H     1 <1>   0.0800 
 36 H2     -24.0470   -42.8220   -21.6750 H     1 <1>   0.0800 
 37 C      -22.7050   -37.5060   -22.7330 C.ar  1 <1>  -0.1500 
 38 H      -23.0960   -37.1920   -21.8010 H     1 <1>   0.1500 
 39 C      -22.1540   -36.5680   -23.5890 C.ar  1 <1>  -0.1500 
 40 H      -22.1320   -35.5470   -23.3080 H     1 <1>   0.1500 
@<TRIPOS>BOND
  1   1   2  1   
  2   1   3  ar  
  3   1  39  ar  
  4   3   4  1   
  5   3  17  ar  
  6   4   5  1   
  7   4   6  1   
  8   4   7  1   
  9   7   8  1   
 10   7   9  1   
 11   7  13  1   
 12   9  10  1   
 13   9  11  1   
 14   9  12  1   
 15  13  14  1   
 16  13  15  1   
 17  13  16  1   
 18  17  18  1   
 19  17  19  ar  
 20  19  20  1   
 21  19  37  ar  
 22  20  21  1   
 23  20  22  1   
 24  20  23  1   
 25  23  24  1   
 26  23  25  1   
 27  23  34  1   
 28  25  26  1   
 29  25  27  1   
 30  25  28  1   
 31  28  29  1   
 32  28  30  1   
 33  28  31  1   
 34  31  32  1   
 35  31  33  1   
 36  31  34  1   
 37  34  35  1   
 38  34  36  1   
 39  37  38  1   
 40  37  39  ar  
 41  39  40  1   
@<TRIPOS>SUBSTRUCTURE
  1 ****  17 GROUP 4 **** **** 0
@<TRIPOS>PROPERTY_DATA
rseq	|	1
mseq	|	2
S	|	-5.92769861221313
rmsd_refine	|	1.71453928947449
E_conf	|	-88.8385009765625
E_place	|	-71.3194274902344
E_score1	|	-9.98545360565186
E_refine	|	-26.2765998840332
E_score2	|	-5.92769861221313
Field_1	|	1
Field_2	|	HM-1-37
E_orig	|	0.806443274021149
PLIF_pronum	|	1
PLIF_raw	|	[[13,1,1,1,1,1,1,39,39,39,39,39,39,37,37,37,37,37,37,19,19,19,19,19,19,17,17,17,17,17,17,3,3,3,3,3,3],[1782,1245,1249,1253,1255,1251,1248,1245,1249,1253,1255,1251,1248,1245,1249,1253,1255,1251,1248,1245,1249,1253,1255,1251,1248,1245,1249,1253,1255,1251,1248,1245,1249,1253,1255,1251,1248],[115,82,82,82,82,82,82,82,82,82,82,82,82,82,82,82,82,82,82,82,82,82,82,82,82,82,82,82,82,82,82,82,82,82,82,82,82],[3,10,10,10,10,10,10,10,10,10,10,10,10,10,10,10,10,10,10,10,10,10,10,10,10,10,10,10,10,10,10,10,10,10,10,10,10],[0.9,1e-005,1e-005,1e-005,1e-005,1e-005,1e-005,1e-005,1e-005,1e-005,1e-005,1e-005,1e-005,1e-005,1e-005,1e-005,1e-005,1e-005,1e-005,1e-005,1e-005,1e-005,1e-005,1e-005,1e-005,1e-005,1e-005,1e-005,1e-005,1e-005,1e-005,1e-005,1e-005,1e-005,1e-005,1e-005,1e-005]]
FP:PLIF	|	5
PLIF_ligidx	|	13

# MOE 2020.09 (io_trps.svl 2020.11)

@<TRIPOS>MOLECULE
2XQJ
40 41 1 0 0 
SMALL
USER_CHARGES


@<TRIPOS>ATOM
  1 C      -23.3930   -39.3230   -21.6570 C.ar  1 <1>  -0.1710 
  2 O      -24.1950   -39.7880   -20.7650 O.3   1 <1>  -0.8290 
  3 C      -22.4620   -40.1470   -22.3330 C.ar  1 <1>  -0.1440 
  4 C      -22.4050   -41.6230   -22.0110 C.3   1 <1>   0.4870 
  5 H1     -21.9300   -41.7150   -21.0440 H     1 <1>   0.0800 
  6 H2     -21.7100   -42.1030   -22.6870 H     1 <1>   0.0800 
  7 N      -23.7350   -42.3080   -22.0150 N.4   1 <1>  -0.9590 
  8 H      -24.4000   -41.5450   -21.9270 H     1 <1>   0.4500 
  9 C      -23.9210   -43.1540   -20.8010 C.3   1 <1>   0.2630 
 10 H1     -23.1480   -43.9010   -20.6950 H     1 <1>   0.0800 
 11 H2     -24.8550   -43.6970   -20.7990 H     1 <1>   0.0800 
 12 H3     -23.9070   -42.5810   -19.8830 H     1 <1>   0.0800 
 13 C      -24.0370   -43.0270   -23.2970 C.3   1 <1>   0.2630 
 14 H1     -25.0290   -43.4580   -23.3150 H     1 <1>   0.0800 
 15 H2     -23.3600   -43.8490   -23.4910 H     1 <1>   0.0800 
 16 H3     -23.9800   -42.3840   -24.1650 H     1 <1>   0.0800 
 17 C      -21.5930   -39.6050   -23.2680 C.ar  1 <1>  -0.1500 
 18 H      -20.8880   -40.2330   -23.7480 H     1 <1>   0.1500 
 19 C      -21.6250   -38.2440   -23.5810 C.ar  1 <1>  -0.1440 
 20 C      -20.6430   -37.6490   -24.5650 C.3   1 <1>   0.4870 
 21 H1     -19.6620   -38.0000   -24.2740 H     1 <1>   0.0800 
 22 H2     -20.5930   -36.5860   -24.3690 H     1 <1>   0.0800 
 23 N      -20.8710   -37.9030   -26.0350 N.4   1 <1>  -0.9590 
 24 H      -20.0440   -37.5870   -26.5200 H     1 <1>   0.4500 
 25 C      -21.0840   -39.3130   -26.4720 C.3   1 <1>   0.3430 
 26 H1     -20.1980   -39.9320   -26.4410 H     1 <1>   0.0800 
 27 H2     -21.8040   -39.8140   -25.8390 H     1 <1>   0.0800 
 28 C      -21.6600   -39.2510   -27.8830 C.3   1 <1>  -0.1600 
 29 H1     -20.8390   -39.2680   -28.6010 H     1 <1>   0.0800 
 30 H2     -22.3350   -40.0840   -28.0700 H     1 <1>   0.0800 
 31 C      -22.3710   -37.8920   -27.9570 C.3   1 <1>  -0.1600 
 32 H1     -22.0220   -37.3290   -28.8220 H     1 <1>   0.0800 
 33 H2     -23.4480   -38.0300   -28.0160 H     1 <1>   0.0800 
 34 C      -21.9850   -37.1520   -26.6680 C.3   1 <1>   0.3430 
 35 H1     -22.8470   -37.1090   -26.0170 H     1 <1>   0.0800 
 36 H2     -21.7370   -36.1210   -26.8820 H     1 <1>   0.0800 
 37 C      -22.5550   -37.4290   -22.9370 C.ar  1 <1>  -0.1500 
 38 H      -22.5980   -36.3930   -23.1620 H     1 <1>   0.1500 
 39 C      -23.4190   -37.9550   -21.9930 C.ar  1 <1>  -0.1500 
 40 H      -24.1200   -37.3310   -21.5060 H     1 <1>   0.1500 
@<TRIPOS>BOND
  1   1   2  1   
  2   1   3  ar  
  3   1  39  ar  
  4   3   4  1   
  5   3  17  ar  
  6   4   5  1   
  7   4   6  1   
  8   4   7  1   
  9   7   8  1   
 10   7   9  1   
 11   7  13  1   
 12   9  10  1   
 13   9  11  1   
 14   9  12  1   
 15  13  14  1   
 16  13  15  1   
 17  13  16  1   
 18  17  18  1   
 19  17  19  ar  
 20  19  20  1   
 21  19  37  ar  
 22  20  21  1   
 23  20  22  1   
 24  20  23  1   
 25  23  24  1   
 26  23  25  1   
 27  23  34  1   
 28  25  26  1   
 29  25  27  1   
 30  25  28  1   
 31  28  29  1   
 32  28  30  1   
 33  28  31  1   
 34  31  32  1   
 35  31  33  1   
 36  31  34  1   
 37  34  35  1   
 38  34  36  1   
 39  37  38  1   
 40  37  39  ar  
 41  39  40  1   
@<TRIPOS>SUBSTRUCTURE
  1 ****  17 GROUP 4 **** **** 0
@<TRIPOS>PROPERTY_DATA
rseq	|	1
mseq	|	2
S	|	-5.88851690292358
rmsd_refine	|	1.3938319683075
E_conf	|	-87.6983261108398
E_place	|	-56.4908103942871
E_score1	|	-9.72375202178955
E_refine	|	-27.1478271484375
E_score2	|	-5.88851690292358
Field_1	|	1
Field_2	|	HM-1-37
E_orig	|	2
PLIF_pronum	|	1
PLIF_raw	|	[[23,1,39,37,19,17,3,1,1,1,1,1,39,39,39,39,39,37,37,37,37,37,19,19,19,19,19,17,17,17,17,17,3,3,3,3,3],[1782,6783,6783,6783,6783,6783,6783,1242,1245,1248,1246,1243,1242,1245,1248,1246,1243,1242,1245,1248,1246,1243,1242,1245,1248,1246,1243,1242,1245,1248,1246,1243,1242,1245,1248,1246,1243],[115,438,438,438,438,438,438,82,82,82,82,82,82,82,82,82,82,82,82,82,82,82,82,82,82,82,82,82,82,82,82,82,82,82,82,82,82],[3,10,10,10,10,10,10,10,10,10,10,10,10,10,10,10,10,10,10,10,10,10,10,10,10,10,10,10,10,10,10,10,10,10,10,10,10],[1,0.8,0.8,0.8,0.8,0.8,0.8,1e-005,1e-005,1e-005,1e-005,1e-005,1e-005,1e-005,1e-005,1e-005,1e-005,1e-005,1e-005,1e-005,1e-005,1e-005,1e-005,1e-005,1e-005,1e-005,1e-005,1e-005,1e-005,1e-005,1e-005,1e-005,1e-005,1e-005,1e-005,1e-005,1e-005]]
FP:PLIF	|	5 14
PLIF_ligidx	|	[23,[1,39,37,19,17,3]]

# MOE 2020.09 (io_trps.svl 2020.11)

@<TRIPOS>MOLECULE
2XQJ
43 44 1 0 0 
SMALL
USER_CHARGES


@<TRIPOS>ATOM
  1 C      -21.6820   -36.8760   -24.9710 C.ar  1 <1>  -0.1710 
  2 O      -21.2170   -36.0230   -25.8140 O.3   1 <1>  -0.8290 
  3 C      -21.6660   -38.2610   -25.2440 C.ar  1 <1>  -0.1440 
  4 C      -21.1000   -38.7390   -26.5560 C.3   1 <1>   0.4860 
  5 H1     -20.6280   -39.6950   -26.3760 H     1 <1>   0.0800 
  6 H2     -20.2790   -38.0850   -26.8110 H     1 <1>   0.0800 
  7 N      -22.0660   -38.8270   -27.6880 N.4   1 <1>  -0.9590 
  8 H      -22.9310   -39.1750   -27.3020 H     1 <1>   0.4500 
  9 C      -21.6110   -39.8000   -28.7250 C.3   1 <1>   0.2630 
 10 H1     -21.5260   -40.8110   -28.3500 H     1 <1>   0.0800 
 11 H2     -20.6380   -39.5530   -29.1260 H     1 <1>   0.0800 
 12 H3     -22.2740   -39.8550   -29.5780 H     1 <1>   0.0800 
 13 C      -22.3730   -37.4760   -28.2580 C.3   1 <1>   0.2630 
 14 H1     -21.4970   -36.9620   -28.6260 H     1 <1>   0.0800 
 15 H2     -22.8190   -36.8040   -27.5360 H     1 <1>   0.0800 
 16 H3     -23.0550   -37.5160   -29.0920 H     1 <1>   0.0800 
 17 C      -22.1530   -39.1720   -24.3190 C.ar  1 <1>  -0.1500 
 18 H      -22.1310   -40.2030   -24.5560 H     1 <1>   0.1500 
 19 C      -22.6600   -38.7460   -23.0890 C.ar  1 <1>  -0.1440 
 20 C      -23.1870   -39.7010   -22.0390 C.3   1 <1>   0.4870 
 21 H1     -24.2680   -39.6600   -22.0640 H     1 <1>   0.0800 
 22 H2     -22.9460   -39.2670   -21.0780 H     1 <1>   0.0800 
 23 N      -22.6980   -41.1230   -22.1070 N.4   1 <1>  -0.9590 
 24 H      -21.7560   -41.1140   -22.4710 H     1 <1>   0.4500 
 25 C      -22.7090   -41.7910   -20.7720 C.3   1 <1>   0.4230 
 26 C      -21.4950   -42.7060   -20.5520 C.3   1 <1>  -0.2400 
 27 H1     -21.5330   -43.1690   -19.5650 H     1 <1>   0.0800 
 28 H2     -20.5720   -42.1320   -20.6210 H     1 <1>   0.0800 
 29 H3     -21.4670   -43.5010   -21.2990 H     1 <1>   0.0800 
 30 C      -24.0390   -42.5560   -20.6610 C.3   1 <1>  -0.1600 
 31 H1     -23.9010   -43.5540   -20.2500 H     1 <1>   0.0800 
 32 H2     -24.7230   -41.9960   -20.0220 H     1 <1>   0.0800 
 33 C      -24.6110   -42.6290   -22.0810 C.3   1 <1>  -0.1600 
 34 H1     -25.5320   -42.0510   -22.1200 H     1 <1>   0.0800 
 35 H2     -24.7990   -43.6550   -22.3950 H     1 <1>   0.0800 
 36 C      -23.5620   -41.9740   -22.9740 C.3   1 <1>   0.3430 
 37 H1     -24.0270   -41.4370   -23.7900 H     1 <1>   0.0800 
 38 H2     -22.9860   -42.7580   -23.4470 H     1 <1>   0.0800 
 39 C      -22.6940   -37.3790   -22.8190 C.ar  1 <1>  -0.1500 
 40 H      -23.0870   -37.0370   -21.8980 H     1 <1>   0.1500 
 41 C      -22.2230   -36.4590   -23.7380 C.ar  1 <1>  -0.1500 
 42 H      -22.2660   -35.4240   -23.5180 H     1 <1>   0.1500 
 43 H      -22.6850   -41.0570   -19.9780 H     1 <1>   0.0800 
@<TRIPOS>BOND
  1   1   2  1   
  2   1   3  ar  
  3   1  41  ar  
  4   3   4  1   
  5   3  17  ar  
  6   4   5  1   
  7   4   6  1   
  8   4   7  1   
  9   7   8  1   
 10   7   9  1   
 11   7  13  1   
 12   9  10  1   
 13   9  11  1   
 14   9  12  1   
 15  13  14  1   
 16  13  15  1   
 17  13  16  1   
 18  17  18  1   
 19  17  19  ar  
 20  19  20  1   
 21  19  39  ar  
 22  20  21  1   
 23  20  22  1   
 24  20  23  1   
 25  23  24  1   
 26  23  25  1   
 27  23  36  1   
 28  25  26  1   
 29  25  30  1   
 30  25  43  1   
 31  26  27  1   
 32  26  28  1   
 33  26  29  1   
 34  30  31  1   
 35  30  32  1   
 36  30  33  1   
 37  33  34  1   
 38  33  35  1   
 39  33  36  1   
 40  36  37  1   
 41  36  38  1   
 42  39  40  1   
 43  39  41  ar  
 44  41  42  1   
@<TRIPOS>SUBSTRUCTURE
  1 ****  17 GROUP 4 **** **** 0
@<TRIPOS>PROPERTY_DATA
rseq	|	1
mseq	|	3
S	|	-6.46657228469849
rmsd_refine	|	1.49450767040253
E_conf	|	-115.207427978516
E_place	|	-63.6487464904785
E_score1	|	-9.5320987701416
E_refine	|	-29.0274047851562
E_score2	|	-6.46657228469849
Field_1	|	2
Field_2	|	HM-1-36
E_orig	|	0.800000011920929
PLIF_pronum	|	1
PLIF_raw	|	[[13,1,1,1,1,1,1,3,3,3,3,3,3,17,17,17,17,17,17,19,19,19,19,19,19,39,39,39,39,39,39,41,41,41,41,41,41],[1782,1245,1249,1253,1255,1251,1248,1245,1249,1253,1255,1251,1248,1245,1249,1253,1255,1251,1248,1245,1249,1253,1255,1251,1248,1245,1249,1253,1255,1251,1248,1245,1249,1253,1255,1251,1248],[115,82,82,82,82,82,82,82,82,82,82,82,82,82,82,82,82,82,82,82,82,82,82,82,82,82,82,82,82,82,82,82,82,82,82,82,82],[3,10,10,10,10,10,10,10,10,10,10,10,10,10,10,10,10,10,10,10,10,10,10,10,10,10,10,10,10,10,10,10,10,10,10,10,10],[0.9,1e-005,1e-005,1e-005,1e-005,1e-005,1e-005,1e-005,1e-005,1e-005,1e-005,1e-005,1e-005,1e-005,1e-005,1e-005,1e-005,1e-005,1e-005,1e-005,1e-005,1e-005,1e-005,1e-005,1e-005,1e-005,1e-005,1e-005,1e-005,1e-005,1e-005,1e-005,1e-005,1e-005,1e-005,1e-005,1e-005]]
FP:PLIF	|	5
PLIF_ligidx	|	13

# MOE 2020.09 (io_trps.svl 2020.11)

@<TRIPOS>MOLECULE
2XQJ
43 44 1 0 0 
SMALL
USER_CHARGES


@<TRIPOS>ATOM
  1 C      -19.8840   -38.1530   -24.1700 C.ar  1 <1>  -0.1710 
  2 O      -19.4170   -37.0680   -24.6660 O.3   1 <1>  -0.8290 
  3 C      -21.1130   -38.6980   -24.6090 C.ar  1 <1>  -0.1440 
  4 C      -21.9120   -37.9960   -25.6820 C.3   1 <1>   0.4860 
  5 H1     -21.9380   -36.9440   -25.4300 H     1 <1>   0.0800 
  6 H2     -22.9430   -38.3090   -25.5850 H     1 <1>   0.0800 
  7 N      -21.4210   -38.1970   -27.0860 N.4   1 <1>  -0.9590 
  8 H      -20.4850   -37.8080   -27.0940 H     1 <1>   0.4500 
  9 C      -22.2230   -37.4160   -28.0720 C.3   1 <1>   0.2630 
 10 H1     -21.8100   -37.4490   -29.0700 H     1 <1>   0.0800 
 11 H2     -22.2810   -36.3690   -27.8190 H     1 <1>   0.0800 
 12 H3     -23.2440   -37.7610   -28.1590 H     1 <1>   0.0800 
 13 C      -21.2950   -39.6400   -27.4790 C.3   1 <1>   0.2630 
 14 H1     -22.2420   -40.1630   -27.4850 H     1 <1>   0.0800 
 15 H2     -20.6490   -40.2030   -26.8180 H     1 <1>   0.0800 
 16 H3     -20.8820   -39.7690   -28.4710 H     1 <1>   0.0800 
 17 C      -21.5910   -39.8810   -24.0670 C.ar  1 <1>  -0.1500 
 18 H      -22.5090   -40.2800   -24.4130 H     1 <1>   0.1500 
 19 C      -20.8830   -40.5490   -23.0690 C.ar  1 <1>  -0.1440 
 20 C      -21.4310   -41.8160   -22.4620 C.3   1 <1>   0.4870 
 21 H1     -20.5940   -42.4620   -22.2370 H     1 <1>   0.0800 
 22 H2     -21.9720   -42.3520   -23.2310 H     1 <1>   0.0800 
 23 N      -22.2850   -41.5990   -21.2500 N.4   1 <1>  -0.9590 
 24 H      -21.7500   -41.0440   -20.5980 H     1 <1>   0.4500 
 25 C      -23.5600   -40.8510   -21.5340 C.3   1 <1>   0.4230 
 26 C      -23.6470   -39.5110   -20.7950 C.3   1 <1>  -0.2400 
 27 H1     -24.5920   -39.0120   -21.0080 H     1 <1>   0.0800 
 28 H2     -22.8450   -38.8510   -21.1240 H     1 <1>   0.0800 
 29 H3     -23.5660   -39.6530   -19.7170 H     1 <1>   0.0800 
 30 C      -24.7290   -41.7810   -21.1920 C.3   1 <1>  -0.1600 
 31 H1     -25.5710   -41.2550   -20.7390 H     1 <1>   0.0800 
 32 H2     -25.0550   -42.2690   -22.1120 H     1 <1>   0.0800 
 33 C      -24.1540   -42.8380   -20.2550 C.3   1 <1>  -0.1600 
 34 H1     -24.6070   -43.8130   -20.4200 H     1 <1>   0.0800 
 35 H2     -24.3020   -42.5270   -19.2210 H     1 <1>   0.0800 
 36 C      -22.6640   -42.8790   -20.5750 C.3   1 <1>   0.3430 
 37 H1     -22.4830   -43.7300   -21.2180 H     1 <1>   0.0800 
 38 H2     -22.0900   -43.0820   -19.6800 H     1 <1>   0.0800 
 39 C      -19.6770   -40.0130   -22.6200 C.ar  1 <1>  -0.1500 
 40 H      -19.1320   -40.5060   -21.8600 H     1 <1>   0.1500 
 41 C      -19.1810   -38.8400   -23.1600 C.ar  1 <1>  -0.1500 
 42 H      -18.2600   -38.4460   -22.8150 H     1 <1>   0.1500 
 43 H      -23.6460   -40.6210   -22.5880 H     1 <1>   0.0800 
@<TRIPOS>BOND
  1   1   2  1   
  2   1   3  ar  
  3   1  41  ar  
  4   3   4  1   
  5   3  17  ar  
  6   4   5  1   
  7   4   6  1   
  8   4   7  1   
  9   7   8  1   
 10   7   9  1   
 11   7  13  1   
 12   9  10  1   
 13   9  11  1   
 14   9  12  1   
 15  13  14  1   
 16  13  15  1   
 17  13  16  1   
 18  17  18  1   
 19  17  19  ar  
 20  19  20  1   
 21  19  39  ar  
 22  20  21  1   
 23  20  22  1   
 24  20  23  1   
 25  23  24  1   
 26  23  25  1   
 27  23  36  1   
 28  25  26  1   
 29  25  30  1   
 30  25  43  1   
 31  26  27  1   
 32  26  28  1   
 33  26  29  1   
 34  30  31  1   
 35  30  32  1   
 36  30  33  1   
 37  33  34  1   
 38  33  35  1   
 39  33  36  1   
 40  36  37  1   
 41  36  38  1   
 42  39  40  1   
 43  39  41  ar  
 44  41  42  1   
@<TRIPOS>SUBSTRUCTURE
  1 ****  17 GROUP 4 **** **** 0
@<TRIPOS>PROPERTY_DATA
rseq	|	1
mseq	|	3
S	|	-6.42620277404785
rmsd_refine	|	2.59528493881226
E_conf	|	-119.50862121582
E_place	|	-54.3744659423828
E_score1	|	-9.96140289306641
E_refine	|	-35.0045738220215
E_score2	|	-6.42620277404785
Field_1	|	2
Field_2	|	HM-1-36
E_orig	|	0
PLIF_pronum	|	1
PLIF_raw	|	[7,1782,115,3,1.8]
FP:PLIF	|	5 6
PLIF_ligidx	|	[7,7]

# MOE 2020.09 (io_trps.svl 2020.11)

@<TRIPOS>MOLECULE
2XQJ
43 44 1 0 0 
SMALL
USER_CHARGES


@<TRIPOS>ATOM
  1 C      -21.6370   -39.0700   -27.1400 C.ar  1 <1>  -0.1710 
  2 O      -21.4540   -39.1410   -28.4080 O.3   1 <1>  -0.8290 
  3 C      -21.6100   -40.2280   -26.3330 C.ar  1 <1>  -0.1440 
  4 C      -21.4000   -41.5660   -26.9940 C.3   1 <1>   0.4860 
  5 H1     -20.9850   -42.2560   -26.2720 H     1 <1>   0.0800 
  6 H2     -20.6100   -41.4320   -27.7080 H     1 <1>   0.0800 
  7 N      -22.6090   -42.1260   -27.6670 N.4   1 <1>  -0.9590 
  8 H      -23.2260   -41.3320   -27.7990 H     1 <1>   0.4500 
  9 C      -23.3140   -43.1330   -26.8200 C.3   1 <1>   0.2630 
 10 H1     -23.6300   -42.7360   -25.8660 H     1 <1>   0.0800 
 11 H2     -22.6910   -43.9810   -26.5820 H     1 <1>   0.0800 
 12 H3     -24.2070   -43.5320   -27.2840 H     1 <1>   0.0800 
 13 C      -22.3060   -42.6270   -29.0440 C.3   1 <1>   0.2630 
 14 H1     -21.6050   -43.4510   -29.0530 H     1 <1>   0.0800 
 15 H2     -21.8750   -41.8630   -29.6780 H     1 <1>   0.0800 
 16 H3     -23.1850   -42.9770   -29.5680 H     1 <1>   0.0800 
 17 C      -21.8050   -40.1390   -24.9650 C.ar  1 <1>  -0.1500 
 18 H      -21.7630   -41.0200   -24.3830 H     1 <1>   0.1500 
 19 C      -22.0590   -38.9100   -24.3530 C.ar  1 <1>  -0.1440 
 20 C      -22.3030   -38.8040   -22.8650 C.3   1 <1>   0.4870 
 21 H1     -22.4450   -37.7540   -22.6440 H     1 <1>   0.0800 
 22 H2     -21.3820   -39.0470   -22.3530 H     1 <1>   0.0800 
 23 N      -23.4550   -39.6120   -22.3300 N.4   1 <1>  -0.9590 
 24 H      -24.1790   -39.6080   -23.0380 H     1 <1>   0.4500 
 25 C      -23.0880   -41.0380   -22.0110 C.3   1 <1>   0.4230 
 26 C      -23.9160   -42.0970   -22.7520 C.3   1 <1>  -0.2400 
 27 H1     -23.5190   -43.0930   -22.5540 H     1 <1>   0.0800 
 28 H2     -23.8880   -41.9290   -23.8270 H     1 <1>   0.0800 
 29 H3     -24.9540   -42.0780   -22.4210 H     1 <1>   0.0800 
 30 C      -23.1650   -41.2220   -20.4890 C.3   1 <1>  -0.1600 
 31 H1     -23.9520   -41.9310   -20.2240 H     1 <1>   0.0800 
 32 H2     -22.2060   -41.5830   -20.1170 H     1 <1>   0.0800 
 33 C      -23.5000   -39.8510   -19.9000 C.3   1 <1>  -0.1600 
 34 H1     -22.5900   -39.3920   -19.5150 H     1 <1>   0.0800 
 35 H2     -24.2480   -39.9190   -19.1100 H     1 <1>   0.0800 
 36 C      -24.0130   -39.0290   -21.0760 C.3   1 <1>   0.3430 
 37 H1     -23.7810   -37.9800   -20.9430 H     1 <1>   0.0800 
 38 H2     -25.0930   -39.0750   -21.0730 H     1 <1>   0.0800 
 39 C      -22.0860   -37.7590   -25.1420 C.ar  1 <1>  -0.1500 
 40 H      -22.2710   -36.8150   -24.6970 H     1 <1>   0.1500 
 41 C      -21.8760   -37.8320   -26.5090 C.ar  1 <1>  -0.1500 
 42 H      -21.8990   -36.9520   -27.0980 H     1 <1>   0.1500 
 43 H      -22.0570   -41.2120   -22.2880 H     1 <1>   0.0800 
@<TRIPOS>BOND
  1   1   2  1   
  2   1   3  ar  
  3   1  41  ar  
  4   3   4  1   
  5   3  17  ar  
  6   4   5  1   
  7   4   6  1   
  8   4   7  1   
  9   7   8  1   
 10   7   9  1   
 11   7  13  1   
 12   9  10  1   
 13   9  11  1   
 14   9  12  1   
 15  13  14  1   
 16  13  15  1   
 17  13  16  1   
 18  17  18  1   
 19  17  19  ar  
 20  19  20  1   
 21  19  39  ar  
 22  20  21  1   
 23  20  22  1   
 24  20  23  1   
 25  23  24  1   
 26  23  25  1   
 27  23  36  1   
 28  25  26  1   
 29  25  30  1   
 30  25  43  1   
 31  26  27  1   
 32  26  28  1   
 33  26  29  1   
 34  30  31  1   
 35  30  32  1   
 36  30  33  1   
 37  33  34  1   
 38  33  35  1   
 39  33  36  1   
 40  36  37  1   
 41  36  38  1   
 42  39  40  1   
 43  39  41  ar  
 44  41  42  1   
@<TRIPOS>SUBSTRUCTURE
  1 ****  17 GROUP 4 **** **** 0
@<TRIPOS>PROPERTY_DATA
rseq	|	1
mseq	|	3
S	|	-6.33044910430908
rmsd_refine	|	1.2406553030014
E_conf	|	-115.699478149414
E_place	|	-52.147087097168
E_score1	|	-10.5304374694824
E_refine	|	-30.928050994873
E_score2	|	-6.33044910430908
Field_1	|	2
Field_2	|	HM-1-36
E_orig	|	1.00218999385834
PLIF_pronum	|	1
PLIF_raw	|	[[4,7,9,13],[1842,1238,1267,1267],[120,82,83,83],[1,3,1,1],[0.9,1.1,0.5,0.6]]
FP:PLIF	|	1 16 17
PLIF_ligidx	|	[7,[9,13],4]

# MOE 2020.09 (io_trps.svl 2020.11)

@<TRIPOS>MOLECULE
2XQJ
43 44 1 0 0 
SMALL
USER_CHARGES


@<TRIPOS>ATOM
  1 C      -19.5520   -38.3430   -23.9820 C.ar  1 <1>  -0.1710 
  2 O      -18.9220   -37.3040   -24.3910 O.3   1 <1>  -0.8290 
  3 C      -20.5830   -38.9390   -24.7480 C.ar  1 <1>  -0.1440 
  4 C      -20.9150   -38.3860   -26.1130 C.3   1 <1>   0.4860 
  5 H1     -21.0370   -39.2270   -26.7820 H     1 <1>   0.0800 
  6 H2     -20.0350   -37.8880   -26.4850 H     1 <1>   0.0800 
  7 N      -22.0750   -37.4630   -26.2020 N.4   1 <1>  -0.9590 
  8 H      -22.8540   -37.9270   -25.7560 H     1 <1>   0.4500 
  9 C      -22.4370   -37.2260   -27.6390 C.3   1 <1>   0.2630 
 10 H1     -22.6370   -38.1420   -28.1790 H     1 <1>   0.0800 
 11 H2     -21.6570   -36.7220   -28.1930 H     1 <1>   0.0800 
 12 H3     -23.3200   -36.6160   -27.7630 H     1 <1>   0.0800 
 13 C      -21.8250   -36.1890   -25.4370 C.3   1 <1>   0.2630 
 14 H1     -20.9980   -35.6140   -25.8330 H     1 <1>   0.0800 
 15 H2     -21.5800   -36.3610   -24.3970 H     1 <1>   0.0800 
 16 H3     -22.6760   -35.5210   -25.4310 H     1 <1>   0.0800 
 17 C      -21.2640   -40.0470   -24.2680 C.ar  1 <1>  -0.1500 
 18 H      -22.0380   -40.4780   -24.8510 H     1 <1>   0.1500 
 19 C      -20.9350   -40.6110   -23.0370 C.ar  1 <1>  -0.1440 
 20 C      -21.6740   -41.8180   -22.5200 C.3   1 <1>   0.4870 
 21 H1     -20.9600   -42.6290   -22.4550 H     1 <1>   0.0800 
 22 H2     -22.3730   -42.1470   -23.2770 H     1 <1>   0.0800 
 23 N      -22.3560   -41.5990   -21.2060 N.4   1 <1>  -0.9590 
 24 H      -21.7110   -41.0970   -20.6120 H     1 <1>   0.4500 
 25 C      -23.6150   -40.7830   -21.3060 C.3   1 <1>   0.4230 
 26 C      -23.4380   -39.2850   -21.0320 C.3   1 <1>  -0.2400 
 27 H1     -24.3970   -38.7690   -21.0970 H     1 <1>   0.0800 
 28 H2     -22.7660   -38.8360   -21.7620 H     1 <1>   0.0800 
 29 H3     -23.0300   -39.1250   -20.0340 H     1 <1>   0.0800 
 30 C      -24.6500   -41.4310   -20.3810 C.3   1 <1>  -0.1600 
 31 H1     -24.6070   -40.9630   -19.3960 H     1 <1>   0.0800 
 32 H2     -25.6570   -41.3420   -20.7900 H     1 <1>   0.0800 
 33 C      -24.2100   -42.8880   -20.2560 C.3   1 <1>  -0.1600 
 34 H1     -24.6770   -43.4760   -21.0460 H     1 <1>   0.0800 
 35 H2     -24.4480   -43.3040   -19.2760 H     1 <1>   0.0800 
 36 C      -22.7090   -42.8770   -20.5170 C.3   1 <1>   0.3430 
 37 H1     -22.4340   -43.7580   -21.0830 H     1 <1>   0.0800 
 38 H2     -22.1850   -42.9800   -19.5760 H     1 <1>   0.0800 
 39 C      -19.9070   -40.0440   -22.2850 C.ar  1 <1>  -0.1500 
 40 H      -19.6430   -40.4670   -21.3520 H     1 <1>   0.1500 
 41 C      -19.2230   -38.9350   -22.7460 C.ar  1 <1>  -0.1500 
 42 H      -18.4360   -38.5210   -22.1710 H     1 <1>   0.1500 
 43 H      -24.0150   -40.8730   -22.3080 H     1 <1>   0.0800 
@<TRIPOS>BOND
  1   1   2  1   
  2   1   3  ar  
  3   1  41  ar  
  4   3   4  1   
  5   3  17  ar  
  6   4   5  1   
  7   4   6  1   
  8   4   7  1   
  9   7   8  1   
 10   7   9  1   
 11   7  13  1   
 12   9  10  1   
 13   9  11  1   
 14   9  12  1   
 15  13  14  1   
 16  13  15  1   
 17  13  16  1   
 18  17  18  1   
 19  17  19  ar  
 20  19  20  1   
 21  19  39  ar  
 22  20  21  1   
 23  20  22  1   
 24  20  23  1   
 25  23  24  1   
 26  23  25  1   
 27  23  36  1   
 28  25  26  1   
 29  25  30  1   
 30  25  43  1   
 31  26  27  1   
 32  26  28  1   
 33  26  29  1   
 34  30  31  1   
 35  30  32  1   
 36  30  33  1   
 37  33  34  1   
 38  33  35  1   
 39  33  36  1   
 40  36  37  1   
 41  36  38  1   
 42  39  40  1   
 43  39  41  ar  
 44  41  42  1   
@<TRIPOS>SUBSTRUCTURE
  1 ****  17 GROUP 4 **** **** 0
@<TRIPOS>PROPERTY_DATA
rseq	|	1
mseq	|	3
S	|	-6.26493501663208
rmsd_refine	|	1.45778036117554
E_conf	|	-119.015312194824
E_place	|	-53.2493324279785
E_score1	|	-9.67914962768555
E_refine	|	-32.0080413818359
E_score2	|	-6.26493501663208
Field_1	|	2
Field_2	|	HM-1-36
E_orig	|	1.51031982898712
PLIF_pronum	|	1
PLIF_raw	|	[9,1782,115,3,0.5]
FP:PLIF	|	5
PLIF_ligidx	|	9

# MOE 2020.09 (io_trps.svl 2020.11)

@<TRIPOS>MOLECULE
2XQJ
43 44 1 0 0 
SMALL
USER_CHARGES


@<TRIPOS>ATOM
  1 C      -19.4390   -38.0880   -23.9960 C.ar  1 <1>  -0.1710 
  2 O      -18.8170   -37.0600   -24.4340 O.3   1 <1>  -0.8290 
  3 C      -20.6730   -38.5070   -24.5480 C.ar  1 <1>  -0.1440 
  4 C      -21.3250   -37.7450   -25.6850 C.3   1 <1>   0.4860 
  5 H1     -22.0660   -38.3990   -26.1230 H     1 <1>   0.0800 
  6 H2     -20.5900   -37.6390   -26.4720 H     1 <1>   0.0800 
  7 N      -21.9450   -36.4100   -25.3400 N.4   1 <1>  -0.9590 
  8 H      -22.7800   -36.3260   -25.9020 H     1 <1>   0.4500 
  9 C      -21.0560   -35.2840   -25.7410 C.3   1 <1>   0.2630 
 10 H1     -20.8210   -35.2870   -26.7950 H     1 <1>   0.0800 
 11 H2     -20.1070   -35.2910   -25.2230 H     1 <1>   0.0800 
 12 H3     -21.4870   -34.3140   -25.5360 H     1 <1>   0.0800 
 13 C      -22.3620   -36.2810   -23.8990 C.3   1 <1>   0.2630 
 14 H1     -21.5240   -36.3290   -23.2150 H     1 <1>   0.0800 
 15 H2     -23.0500   -37.0540   -23.5850 H     1 <1>   0.0800 
 16 H3     -22.8530   -35.3400   -23.6850 H     1 <1>   0.0800 
 17 C      -21.3280   -39.6110   -24.0290 C.ar  1 <1>  -0.1500 
 18 H      -22.2550   -39.9110   -24.4470 H     1 <1>   0.1500 
 19 C      -20.7980   -40.3220   -22.9530 C.ar  1 <1>  -0.1440 
 20 C      -21.5680   -41.4640   -22.3440 C.3   1 <1>   0.4870 
 21 H1     -20.9930   -41.8690   -21.5220 H     1 <1>   0.0800 
 22 H2     -21.6060   -42.2690   -23.0660 H     1 <1>   0.0800 
 23 N      -22.9380   -41.0550   -21.9070 N.4   1 <1>  -0.9590 
 24 H      -23.4190   -40.7140   -22.7280 H     1 <1>   0.4500 
 25 C      -23.7860   -42.1360   -21.3510 C.3   1 <1>   0.4230 
 26 C      -24.3710   -43.0670   -22.4150 C.3   1 <1>  -0.2400 
 27 H1     -25.0700   -43.7700   -21.9680 H     1 <1>   0.0800 
 28 H2     -23.5780   -43.6360   -22.8990 H     1 <1>   0.0800 
 29 H3     -24.8940   -42.5060   -23.1820 H     1 <1>   0.0800 
 30 C      -24.8390   -41.4470   -20.4660 C.3   1 <1>  -0.1600 
 31 H1     -25.7840   -41.3580   -21.0030 H     1 <1>   0.0800 
 32 H2     -24.9840   -42.0110   -19.5440 H     1 <1>   0.0800 
 33 C      -24.3010   -40.0400   -20.1730 C.3   1 <1>  -0.1600 
 34 H1     -24.1670   -39.8710   -19.1050 H     1 <1>   0.0800 
 35 H2     -24.9730   -39.2940   -20.5970 H     1 <1>   0.0800 
 36 C      -22.9710   -39.9530   -20.9090 C.3   1 <1>   0.3430 
 37 H1     -22.1730   -40.0530   -20.1860 H     1 <1>   0.0800 
 38 H2     -22.8380   -38.9720   -21.3460 H     1 <1>   0.0800 
 39 C      -19.5780   -39.9250   -22.4150 C.ar  1 <1>  -0.1500 
 40 H      -19.1660   -40.4560   -21.6010 H     1 <1>   0.1500 
 41 C      -18.9020   -38.8340   -22.9270 C.ar  1 <1>  -0.1500 
 42 H      -17.9720   -38.5450   -22.5110 H     1 <1>   0.1500 
 43 H      -23.1930   -42.7510   -20.6860 H     1 <1>   0.0800 
@<TRIPOS>BOND
  1   1   2  1   
  2   1   3  ar  
  3   1  41  ar  
  4   3   4  1   
  5   3  17  ar  
  6   4   5  1   
  7   4   6  1   
  8   4   7  1   
  9   7   8  1   
 10   7   9  1   
 11   7  13  1   
 12   9  10  1   
 13   9  11  1   
 14   9  12  1   
 15  13  14  1   
 16  13  15  1   
 17  13  16  1   
 18  17  18  1   
 19  17  19  ar  
 20  19  20  1   
 21  19  39  ar  
 22  20  21  1   
 23  20  22  1   
 24  20  23  1   
 25  23  24  1   
 26  23  25  1   
 27  23  36  1   
 28  25  26  1   
 29  25  30  1   
 30  25  43  1   
 31  26  27  1   
 32  26  28  1   
 33  26  29  1   
 34  30  31  1   
 35  30  32  1   
 36  30  33  1   
 37  33  34  1   
 38  33  35  1   
 39  33  36  1   
 40  36  37  1   
 41  36  38  1   
 42  39  40  1   
 43  39  41  ar  
 44  41  42  1   
@<TRIPOS>SUBSTRUCTURE
  1 ****  17 GROUP 4 **** **** 0
@<TRIPOS>PROPERTY_DATA
rseq	|	1
mseq	|	3
S	|	-6.21765661239624
rmsd_refine	|	1.20291268825531
E_conf	|	-115.477180480957
E_place	|	-58.2923011779785
E_score1	|	-10.8256893157959
E_refine	|	-28.0391025543213
E_score2	|	-6.21765661239624
Field_1	|	2
Field_2	|	HM-1-36
E_orig	|	2.40000009536743
PLIF_pronum	|	1
PLIF_raw	|	[[7,23,23,23,23,23,1,3,17,19,39,41],[3013,1245,1248,1246,1243,1242,6787,6787,6787,6787,6787,6787],[197,82,82,82,82,82,438,438,438,438,438,438],[7,10,10,10,10,10,10,10,10,10,10,10],[1.313894117,0.6,0.6,0.6,0.6,0.6,0.6,0.6,0.6,0.6,0.6,0.6]]
FP:PLIF	|	2 8 14
PLIF_ligidx	|	[[23,23,23,23,23],7,[1,3,17,19,39,41]]

# MOE 2020.09 (io_trps.svl 2020.11)

@<TRIPOS>MOLECULE
2XQJ
43 44 1 0 0 
SMALL
USER_CHARGES


@<TRIPOS>ATOM
  1 C      -18.5480   -38.7480   -24.0910 C.ar  1 <1>  -0.1710 
  2 O      -17.5230   -37.9820   -24.2050 O.3   1 <1>  -0.8290 
  3 C      -19.8650   -38.2320   -24.1370 C.ar  1 <1>  -0.1440 
  4 C      -20.0110   -36.7220   -24.2560 C.3   1 <1>   0.4870 
  5 H1     -19.2500   -36.3970   -24.9520 H     1 <1>   0.0800 
  6 H2     -19.6720   -36.2970   -23.3210 H     1 <1>   0.0800 
  7 N      -21.3420   -36.1250   -24.6450 N.4   1 <1>  -0.9590 
  8 H      -21.1340   -35.1420   -24.7830 H     1 <1>   0.4500 
  9 C      -21.8740   -36.6360   -25.9550 C.3   1 <1>   0.2630 
 10 H1     -22.0990   -37.6930   -25.9430 H     1 <1>   0.0800 
 11 H2     -21.1820   -36.4970   -26.7750 H     1 <1>   0.0800 
 12 H3     -22.7910   -36.1480   -26.2560 H     1 <1>   0.0800 
 13 C      -22.3510   -36.1230   -23.5290 C.3   1 <1>   0.2630 
 14 H1     -22.7250   -37.1050   -23.2770 H     1 <1>   0.0800 
 15 H2     -23.2250   -35.5270   -23.7560 H     1 <1>   0.0800 
 16 H3     -21.9550   -35.7130   -22.6100 H     1 <1>   0.0800 
 17 C      -20.9490   -39.0990   -24.0570 C.ar  1 <1>  -0.1500 
 18 H      -21.9360   -38.7240   -24.1040 H     1 <1>   0.1500 
 19 C      -20.7710   -40.4740   -23.9110 C.ar  1 <1>  -0.1440 
 20 C      -21.9630   -41.3930   -23.7830 C.3   1 <1>   0.4870 
 21 H1     -22.7090   -41.0910   -24.5060 H     1 <1>   0.0800 
 22 H2     -21.6570   -42.3750   -24.1210 H     1 <1>   0.0800 
 23 N      -22.5350   -41.4550   -22.3970 N.4   1 <1>  -0.9590 
 24 H      -21.7430   -41.5460   -21.7760 H     1 <1>   0.4500 
 25 C      -23.2490   -40.1900   -21.9950 C.3   1 <1>   0.3430 
 26 H1     -22.5960   -39.3300   -22.0610 H     1 <1>   0.0800 
 27 H2     -24.0470   -39.9670   -22.6900 H     1 <1>   0.0800 
 28 C      -23.8500   -40.2260   -20.5840 C.3   1 <1>  -0.1600 
 29 H1     -23.0340   -40.2380   -19.8610 H     1 <1>   0.0800 
 30 H2     -24.4390   -39.3220   -20.4260 H     1 <1>   0.0800 
 31 C      -24.7360   -41.4620   -20.3720 C.3   1 <1>  -0.1600 
 32 H1     -25.0540   -41.5150   -19.3300 H     1 <1>   0.0800 
 33 H2     -25.6190   -41.3790   -21.0060 H     1 <1>   0.0800 
 34 C      -23.9610   -42.7380   -20.7420 C.3   1 <1>  -0.1600 
 35 H1     -23.1360   -42.8750   -20.0420 H     1 <1>   0.0800 
 36 H2     -24.6160   -43.6040   -20.6670 H     1 <1>   0.0800 
 37 C      -23.3880   -42.6690   -22.1630 C.3   1 <1>   0.3430 
 38 H1     -22.8420   -43.5830   -22.3580 H     1 <1>   0.0800 
 39 H2     -24.2150   -42.7010   -22.8600 H     1 <1>   0.0800 
 40 C      -19.4750   -40.9830   -23.8470 C.ar  1 <1>  -0.1500 
 41 H      -19.3210   -42.0250   -23.7300 H     1 <1>   0.1500 
 42 C      -18.3820   -40.1400   -23.9370 C.ar  1 <1>  -0.1500 
 43 H      -17.4010   -40.5390   -23.8940 H     1 <1>   0.1500 
@<TRIPOS>BOND
  1   1   2  1   
  2   1   3  ar  
  3   1  42  ar  
  4   3   4  1   
  5   3  17  ar  
  6   4   5  1   
  7   4   6  1   
  8   4   7  1   
  9   7   8  1   
 10   7   9  1   
 11   7  13  1   
 12   9  10  1   
 13   9  11  1   
 14   9  12  1   
 15  13  14  1   
 16  13  15  1   
 17  13  16  1   
 18  17  18  1   
 19  17  19  ar  
 20  19  20  1   
 21  19  40  ar  
 22  20  21  1   
 23  20  22  1   
 24  20  23  1   
 25  23  24  1   
 26  23  25  1   
 27  23  37  1   
 28  25  26  1   
 29  25  27  1   
 30  25  28  1   
 31  28  29  1   
 32  28  30  1   
 33  28  31  1   
 34  31  32  1   
 35  31  33  1   
 36  31  34  1   
 37  34  35  1   
 38  34  36  1   
 39  34  37  1   
 40  37  38  1   
 41  37  39  1   
 42  40  41  1   
 43  40  42  ar  
 44  42  43  1   
@<TRIPOS>SUBSTRUCTURE
  1 ****  17 GROUP 4 **** **** 0
@<TRIPOS>PROPERTY_DATA
rseq	|	1
mseq	|	4
S	|	-6.15603160858154
rmsd_refine	|	1.04757332801819
E_conf	|	-101.569755554199
E_place	|	-65.9695205688477
E_score1	|	-12.3960990905762
E_refine	|	-32.6262359619141
E_score2	|	-6.15603160858154
Field_1	|	3
Field_2	|	HM-1-35
E_orig	|	2
PLIF_pronum	|	1
PLIF_raw	|	[[7,2,7,25,25,25,25,25],[3013,1790,3013,1245,1248,1246,1243,1242],[197,117,197,82,82,82,82,82],[1,4,7,10,10,10,10,10],[6.5,0.6,5.188833636,0.8,0.8,0.8,0.8,0.8]]
FP:PLIF	|	2 20 3 21 8 22
PLIF_ligidx	|	[[25,25,25,25,25],2,7,7,7,7]

# MOE 2020.09 (io_trps.svl 2020.11)

@<TRIPOS>MOLECULE
2XQJ
43 44 1 0 0 
SMALL
USER_CHARGES


@<TRIPOS>ATOM
  1 C      -19.1720   -38.6380   -23.6610 C.ar  1 <1>  -0.1710 
  2 O      -18.1210   -38.2360   -24.2840 O.3   1 <1>  -0.8290 
  3 C      -20.4740   -38.3760   -24.1500 C.ar  1 <1>  -0.1440 
  4 C      -20.6070   -37.7440   -25.5170 C.3   1 <1>   0.4870 
  5 H1     -20.4010   -38.5220   -26.2390 H     1 <1>   0.0800 
  6 H2     -19.7820   -37.0560   -25.6400 H     1 <1>   0.0800 
  7 N      -21.9040   -37.0720   -25.8310 N.4   1 <1>  -0.9590 
  8 H      -22.6240   -37.6440   -25.4160 H     1 <1>   0.4500 
  9 C      -21.9890   -35.7180   -25.1860 C.3   1 <1>   0.2630 
 10 H1     -21.2370   -35.0300   -25.5480 H     1 <1>   0.0800 
 11 H2     -21.8530   -35.7530   -24.1130 H     1 <1>   0.0800 
 12 H3     -22.9400   -35.2290   -25.3450 H     1 <1>   0.0800 
 13 C      -22.1690   -37.0540   -27.3080 C.3   1 <1>   0.2630 
 14 H1     -21.5100   -36.3910   -27.8490 H     1 <1>   0.0800 
 15 H2     -23.1670   -36.7240   -27.5590 H     1 <1>   0.0800 
 16 H3     -22.0560   -38.0260   -27.7710 H     1 <1>   0.0800 
 17 C      -21.5890   -38.7290   -23.4010 C.ar  1 <1>  -0.1500 
 18 H      -22.5610   -38.5030   -23.7550 H     1 <1>   0.1500 
 19 C      -21.4520   -39.3830   -22.1790 C.ar  1 <1>  -0.1440 
 20 C      -22.6510   -39.6830   -21.3130 C.3   1 <1>   0.4870 
 21 H1     -22.3030   -40.2570   -20.4650 H     1 <1>   0.0800 
 22 H2     -22.9720   -38.7490   -20.8710 H     1 <1>   0.0800 
 23 N      -23.8000   -40.3700   -21.9790 N.4   1 <1>  -0.9590 
 24 H      -24.1030   -39.7720   -22.7350 H     1 <1>   0.4500 
 25 C      -23.4010   -41.6900   -22.5950 C.3   1 <1>   0.3430 
 26 H1     -23.7800   -41.7840   -23.6050 H     1 <1>   0.0800 
 27 H2     -22.3280   -41.7420   -22.7240 H     1 <1>   0.0800 
 28 C      -23.8410   -42.9340   -21.8100 C.3   1 <1>  -0.1600 
 29 H1     -24.8460   -43.2110   -22.1310 H     1 <1>   0.0800 
 30 H2     -23.1600   -43.7450   -22.0630 H     1 <1>   0.0800 
 31 C      -23.8430   -42.7110   -20.2870 C.3   1 <1>  -0.1600 
 32 H1     -24.2500   -43.5900   -19.7890 H     1 <1>   0.0800 
 33 H2     -22.8090   -42.5810   -19.9700 H     1 <1>   0.0800 
 34 C      -24.6690   -41.4760   -19.8720 C.3   1 <1>  -0.1600 
 35 H1     -25.6150   -41.7840   -19.4410 H     1 <1>   0.0800 
 36 H2     -24.1420   -40.9040   -19.1160 H     1 <1>   0.0800 
 37 C      -24.9520   -40.5300   -21.0340 C.3   1 <1>   0.3430 
 38 H1     -25.8140   -40.9260   -21.5540 H     1 <1>   0.0800 
 39 H2     -25.2880   -39.5800   -20.6420 H     1 <1>   0.0800 
 40 C      -20.1760   -39.7250   -21.7350 C.ar  1 <1>  -0.1500 
 41 H      -20.0620   -40.2550   -20.8260 H     1 <1>   0.1500 
 42 C      -19.0540   -39.3580   -22.4550 C.ar  1 <1>  -0.1500 
 43 H      -18.0880   -39.6060   -22.0980 H     1 <1>   0.1500 
@<TRIPOS>BOND
  1   1   2  1   
  2   1   3  ar  
  3   1  42  ar  
  4   3   4  1   
  5   3  17  ar  
  6   4   5  1   
  7   4   6  1   
  8   4   7  1   
  9   7   8  1   
 10   7   9  1   
 11   7  13  1   
 12   9  10  1   
 13   9  11  1   
 14   9  12  1   
 15  13  14  1   
 16  13  15  1   
 17  13  16  1   
 18  17  18  1   
 19  17  19  ar  
 20  19  20  1   
 21  19  40  ar  
 22  20  21  1   
 23  20  22  1   
 24  20  23  1   
 25  23  24  1   
 26  23  25  1   
 27  23  37  1   
 28  25  26  1   
 29  25  27  1   
 30  25  28  1   
 31  28  29  1   
 32  28  30  1   
 33  28  31  1   
 34  31  32  1   
 35  31  33  1   
 36  31  34  1   
 37  34  35  1   
 38  34  36  1   
 39  34  37  1   
 40  37  38  1   
 41  37  39  1   
 42  40  41  1   
 43  40  42  ar  
 44  42  43  1   
@<TRIPOS>SUBSTRUCTURE
  1 ****  17 GROUP 4 **** **** 0
@<TRIPOS>PROPERTY_DATA
rseq	|	1
mseq	|	4
S	|	-6.14807844161987
rmsd_refine	|	2.48448705673218
E_conf	|	-94.1031494140625
E_place	|	-56.2377777099609
E_score1	|	-10.8768882751465
E_refine	|	-26.6188983917236
E_score2	|	-6.14807844161987
Field_1	|	3
Field_2	|	HM-1-35
E_orig	|	1.39999997615814
PLIF_pronum	|	1
PLIF_raw	|	[[13,34,34,34,34,34],[1782,6652,6650,6647,6646,6649],[115,430,430,430,430,430],[3,10,10,10,10,10],[0.5,0.6,0.6,0.6,0.6,0.6]]
FP:PLIF	|	5 23
PLIF_ligidx	|	[13,[34,34,34,34,34]]

# MOE 2020.09 (io_trps.svl 2020.11)

@<TRIPOS>MOLECULE
2XQJ
43 44 1 0 0 
SMALL
USER_CHARGES


@<TRIPOS>ATOM
  1 C      -16.9850   -39.9760   -23.6240 C.ar  1 <1>  -0.1710 
  2 O      -15.7760   -39.6460   -23.3590 O.3   1 <1>  -0.8290 
  3 C      -17.3150   -41.1370   -24.3730 C.ar  1 <1>  -0.1440 
  4 C      -16.2700   -42.1620   -24.7920 C.3   1 <1>   0.4870 
  5 H1     -15.6920   -41.7480   -25.6020 H     1 <1>   0.0800 
  6 H2     -16.8080   -42.9640   -25.2780 H     1 <1>   0.0800 
  7 N      -15.3840   -42.7360   -23.7110 N.4   1 <1>  -0.9590 
  8 H      -15.2070   -43.6990   -23.9600 H     1 <1>   0.4500 
  9 C      -14.0340   -42.0840   -23.6430 C.3   1 <1>   0.2630 
 10 H1     -14.0660   -41.0470   -23.3440 H     1 <1>   0.0800 
 11 H2     -13.5100   -42.1010   -24.5890 H     1 <1>   0.0800 
 12 H3     -13.3710   -42.5630   -22.9340 H     1 <1>   0.0800 
 13 C      -16.0550   -42.7430   -22.3770 C.3   1 <1>   0.2630 
 14 H1     -16.3430   -41.7530   -22.0520 H     1 <1>   0.0800 
 15 H2     -15.4260   -43.1140   -21.5880 H     1 <1>   0.0800 
 16 H3     -16.9570   -43.3400   -22.3530 H     1 <1>   0.0800 
 17 C      -18.6320   -41.3690   -24.7370 C.ar  1 <1>  -0.1500 
 18 H      -18.8700   -42.2100   -25.3370 H     1 <1>   0.1500 
 19 C      -19.6520   -40.5060   -24.3420 C.ar  1 <1>  -0.1440 
 20 C      -21.0390   -40.6600   -24.8950 C.3   1 <1>   0.4870 
 21 H1     -21.1700   -41.6790   -25.2330 H     1 <1>   0.0800 
 22 H2     -21.7590   -40.5400   -24.0960 H     1 <1>   0.0800 
 23 N      -21.2420   -39.6770   -25.9890 N.4   1 <1>  -0.9590 
 24 H      -20.3220   -39.2890   -26.1410 H     1 <1>   0.4500 
 25 C      -21.6120   -40.2610   -27.3130 C.3   1 <1>   0.3430 
 26 H1     -20.9490   -41.0680   -27.5910 H     1 <1>   0.0800 
 27 H2     -22.5870   -40.7260   -27.2850 H     1 <1>   0.0800 
 28 C      -21.5980   -39.2150   -28.4320 C.3   1 <1>  -0.1600 
 29 H1     -20.5630   -38.9220   -28.6080 H     1 <1>   0.0800 
 30 H2     -21.9890   -39.6740   -29.3390 H     1 <1>   0.0800 
 31 C      -22.4160   -37.9560   -28.0850 C.3   1 <1>  -0.1600 
 32 H1     -22.2440   -37.1850   -28.8370 H     1 <1>   0.0800 
 33 H2     -23.4730   -38.2130   -28.0920 H     1 <1>   0.0800 
 34 C      -22.0410   -37.4080   -26.6960 C.3   1 <1>  -0.1600 
 35 H1     -21.0300   -37.0120   -26.7210 H     1 <1>   0.0800 
 36 H2     -22.7060   -36.5930   -26.4190 H     1 <1>   0.0800 
 37 C      -22.0830   -38.4970   -25.6230 C.3   1 <1>   0.3430 
 38 H1     -21.7730   -38.0620   -24.6820 H     1 <1>   0.0800 
 39 H2     -23.1120   -38.7820   -25.4580 H     1 <1>   0.0800 
 40 C      -19.3470   -39.4190   -23.5270 C.ar  1 <1>  -0.1500 
 41 H      -20.1160   -38.7690   -23.1980 H     1 <1>   0.1500 
 42 C      -18.0400   -39.1630   -23.1650 C.ar  1 <1>  -0.1500 
 43 H      -17.8190   -38.3370   -22.5440 H     1 <1>   0.1500 
@<TRIPOS>BOND
  1   1   2  1   
  2   1   3  ar  
  3   1  42  ar  
  4   3   4  1   
  5   3  17  ar  
  6   4   5  1   
  7   4   6  1   
  8   4   7  1   
  9   7   8  1   
 10   7   9  1   
 11   7  13  1   
 12   9  10  1   
 13   9  11  1   
 14   9  12  1   
 15  13  14  1   
 16  13  15  1   
 17  13  16  1   
 18  17  18  1   
 19  17  19  ar  
 20  19  20  1   
 21  19  40  ar  
 22  20  21  1   
 23  20  22  1   
 24  20  23  1   
 25  23  24  1   
 26  23  25  1   
 27  23  37  1   
 28  25  26  1   
 29  25  27  1   
 30  25  28  1   
 31  28  29  1   
 32  28  30  1   
 33  28  31  1   
 34  31  32  1   
 35  31  33  1   
 36  31  34  1   
 37  34  35  1   
 38  34  36  1   
 39  34  37  1   
 40  37  38  1   
 41  37  39  1   
 42  40  41  1   
 43  40  42  ar  
 44  42  43  1   
@<TRIPOS>SUBSTRUCTURE
  1 ****  19 GROUP 4 **** **** 0
@<TRIPOS>PROPERTY_DATA
rseq	|	1
mseq	|	4
S	|	-6.09921789169312
rmsd_refine	|	1.49225294589996
E_conf	|	-93.9434814453125
E_place	|	-49.2936706542969
E_score1	|	-9.79399681091309
E_refine	|	-26.3064765930176
E_score2	|	-6.09921789169312
Field_1	|	3
Field_2	|	HM-1-35
E_orig	|	1.23356783390045
PLIF_pronum	|	1
PLIF_raw	|	[[13,1,42,40,19,17,3],[4349,1785,1785,1785,1785,1785,1785],[285,116,116,116,116,116,116],[3,10,10,10,10,10,10],[0.7,0.6,0.6,0.6,0.6,0.6,0.6]]
FP:PLIF	|	18 24
PLIF_ligidx	|	[[1,42,40,19,17,3],13]

# MOE 2020.09 (io_trps.svl 2020.11)

@<TRIPOS>MOLECULE
2XQJ
43 44 1 0 0 
SMALL
USER_CHARGES


@<TRIPOS>ATOM
  1 C      -16.1010   -41.3240   -23.3230 C.ar  1 <1>  -0.1710 
  2 O      -15.1460   -42.1680   -23.1820 O.3   1 <1>  -0.8290 
  3 C      -16.2730   -40.2540   -22.4190 C.ar  1 <1>  -0.1440 
  4 C      -15.3440   -40.1450   -21.2270 C.3   1 <1>   0.4870 
  5 H1     -15.1530   -41.1500   -20.8760 H     1 <1>   0.0800 
  6 H2     -15.9060   -39.6990   -20.4190 H     1 <1>   0.0800 
  7 N      -14.0520   -39.4040   -21.4450 N.4   1 <1>  -0.9590 
  8 H      -13.6090   -39.3240   -20.5400 H     1 <1>   0.4500 
  9 C      -13.0980   -40.1850   -22.2960 C.3   1 <1>   0.2630 
 10 H1     -13.4590   -40.3370   -23.3040 H     1 <1>   0.0800 
 11 H2     -12.9020   -41.1770   -21.9090 H     1 <1>   0.0800 
 12 H3     -12.1330   -39.7080   -22.3950 H     1 <1>   0.0800 
 13 C      -14.2640   -38.0190   -21.9570 C.3   1 <1>   0.2630 
 14 H1     -14.7800   -37.9990   -22.9080 H     1 <1>   0.0800 
 15 H2     -13.3430   -37.4800   -22.1160 H     1 <1>   0.0800 
 16 H3     -14.8510   -37.4090   -21.2840 H     1 <1>   0.0800 
 17 C      -17.2940   -39.3330   -22.6090 C.ar  1 <1>  -0.1500 
 18 H      -17.4110   -38.5380   -21.9200 H     1 <1>   0.1500 
 19 C      -18.1750   -39.4470   -23.6850 C.ar  1 <1>  -0.1440 
 20 C      -19.2730   -38.4320   -23.9130 C.3   1 <1>   0.4870 
 21 H1     -18.8230   -37.4480   -23.9020 H     1 <1>   0.0800 
 22 H2     -19.6120   -38.5460   -24.9340 H     1 <1>   0.0800 
 23 N      -20.4330   -38.5010   -22.9660 N.4   1 <1>  -0.9590 
 24 H      -20.0940   -38.2250   -22.0580 H     1 <1>   0.4500 
 25 C      -21.5240   -37.5270   -23.3460 C.3   1 <1>   0.3430 
 26 H1     -21.1680   -36.5040   -23.3350 H     1 <1>   0.0800 
 27 H2     -21.8270   -37.6840   -24.3730 H     1 <1>   0.0800 
 28 C      -22.7890   -37.6070   -22.4820 C.3   1 <1>  -0.1600 
 29 H1     -22.5890   -37.1780   -21.5040 H     1 <1>   0.0800 
 30 H2     -23.5610   -37.0000   -22.9500 H     1 <1>   0.0800 
 31 C      -23.2990   -39.0470   -22.3170 C.3   1 <1>  -0.1600 
 32 H1     -24.1140   -39.0690   -21.5920 H     1 <1>   0.0800 
 33 H2     -23.6690   -39.3950   -23.2800 H     1 <1>   0.0800 
 34 C      -22.1840   -40.0000   -21.8740 C.3   1 <1>  -0.1600 
 35 H1     -21.8810   -39.7640   -20.8540 H     1 <1>   0.0800 
 36 H2     -22.5570   -41.0250   -21.8900 H     1 <1>   0.0800 
 37 C      -20.9670   -39.9020   -22.8000 C.3   1 <1>   0.3430 
 38 H1     -20.2040   -40.5770   -22.4350 H     1 <1>   0.0800 
 39 H2     -21.2480   -40.3200   -23.7580 H     1 <1>   0.0800 
 40 C      -18.0390   -40.5320   -24.5520 C.ar  1 <1>  -0.1500 
 41 H      -18.7220   -40.6620   -25.3520 H     1 <1>   0.1500 
 42 C      -17.0190   -41.4500   -24.3840 C.ar  1 <1>  -0.1500 
 43 H      -16.9210   -42.2630   -25.0560 H     1 <1>   0.1500 
@<TRIPOS>BOND
  1   1   2  1   
  2   1   3  ar  
  3   1  42  ar  
  4   3   4  1   
  5   3  17  ar  
  6   4   5  1   
  7   4   6  1   
  8   4   7  1   
  9   7   8  1   
 10   7   9  1   
 11   7  13  1   
 12   9  10  1   
 13   9  11  1   
 14   9  12  1   
 15  13  14  1   
 16  13  15  1   
 17  13  16  1   
 18  17  18  1   
 19  17  19  ar  
 20  19  20  1   
 21  19  40  ar  
 22  20  21  1   
 23  20  22  1   
 24  20  23  1   
 25  23  24  1   
 26  23  25  1   
 27  23  37  1   
 28  25  26  1   
 29  25  27  1   
 30  25  28  1   
 31  28  29  1   
 32  28  30  1   
 33  28  31  1   
 34  31  32  1   
 35  31  33  1   
 36  31  34  1   
 37  34  35  1   
 38  34  36  1   
 39  34  37  1   
 40  37  38  1   
 41  37  39  1   
 42  40  41  1   
 43  40  42  ar  
 44  42  43  1   
@<TRIPOS>SUBSTRUCTURE
  1 ****  17 GROUP 4 **** **** 0
@<TRIPOS>PROPERTY_DATA
rseq	|	1
mseq	|	4
S	|	-6.09878015518188
rmsd_refine	|	1.22659575939178
E_conf	|	-102.169761657715
E_place	|	-57.3969955444336
E_score1	|	-10.7917699813843
E_refine	|	-26.6264705657959
E_score2	|	-6.09878015518188
Field_1	|	3
Field_2	|	HM-1-35
E_orig	|	1
PLIF_pronum	|	1
PLIF_raw	|	[[28,28,28,28,28,28],[1249,1253,1255,1251,1248,1245],[82,82,82,82,82,82],[10,10,10,10,10,10],[0.7,0.7,0.7,0.7,0.7,0.7]]
FP:PLIF	|	2
PLIF_ligidx	|	[[28,28,28,28,28,28]]

# MOE 2020.09 (io_trps.svl 2020.11)

@<TRIPOS>MOLECULE
2XQJ
43 44 1 0 0 
SMALL
USER_CHARGES


@<TRIPOS>ATOM
  1 C      -21.1360   -38.9560   -22.6500 C.ar  1 <1>  -0.1710 
  2 O      -22.2490   -38.4160   -22.3040 O.3   1 <1>  -0.8290 
  3 C      -20.1970   -38.2630   -23.4470 C.ar  1 <1>  -0.1440 
  4 C      -20.5360   -36.8700   -23.9240 C.3   1 <1>   0.4870 
  5 H1     -19.6840   -36.4620   -24.4490 H     1 <1>   0.0800 
  6 H2     -20.6320   -36.2400   -23.0490 H     1 <1>   0.0800 
  7 N      -21.7740   -36.8050   -24.7580 N.4   1 <1>  -0.9590 
  8 H      -22.4780   -37.2760   -24.1950 H     1 <1>   0.4500 
  9 C      -22.2420   -35.4050   -24.9530 C.3   1 <1>   0.2630 
 10 H1     -21.4970   -34.7720   -25.4150 H     1 <1>   0.0800 
 11 H2     -22.5080   -34.9180   -24.0240 H     1 <1>   0.0800 
 12 H3     -23.1140   -35.3390   -25.5850 H     1 <1>   0.0800 
 13 C      -21.6740   -37.5750   -26.0420 C.3   1 <1>   0.2630 
 14 H1     -20.9280   -37.1790   -26.7170 H     1 <1>   0.0800 
 15 H2     -22.6010   -37.5860   -26.6000 H     1 <1>   0.0800 
 16 H3     -21.4140   -38.6140   -25.8880 H     1 <1>   0.0800 
 17 C      -19.0030   -38.8650   -23.8110 C.ar  1 <1>  -0.1500 
 18 H      -18.3100   -38.3300   -24.4070 H     1 <1>   0.1500 
 19 C      -18.7040   -40.1680   -23.4090 C.ar  1 <1>  -0.1440 
 20 C      -17.4010   -40.8230   -23.7990 C.3   1 <1>   0.4870 
 21 H1     -17.5840   -41.8850   -23.8880 H     1 <1>   0.0800 
 22 H2     -17.1580   -40.5180   -24.8080 H     1 <1>   0.0800 
 23 N      -16.2650   -40.5530   -22.8600 N.4   1 <1>  -0.9590 
 24 H      -16.6020   -40.7840   -21.9350 H     1 <1>   0.4500 
 25 C      -15.0840   -41.4460   -23.1060 C.3   1 <1>   0.3430 
 26 H1     -15.3480   -42.4900   -22.9920 H     1 <1>   0.0800 
 27 H2     -14.7470   -41.3730   -24.1300 H     1 <1>   0.0800 
 28 C      -13.8910   -41.1490   -22.1970 C.3   1 <1>  -0.1600 
 29 H1     -14.1830   -41.3880   -21.1770 H     1 <1>   0.0800 
 30 H2     -13.0550   -41.7790   -22.4950 H     1 <1>   0.0800 
 31 C      -13.4660   -39.6800   -22.2260 C.3   1 <1>  -0.1600 
 32 H1     -12.6900   -39.5260   -21.4800 H     1 <1>   0.0800 
 33 H2     -13.0670   -39.4290   -23.2080 H     1 <1>   0.0800 
 34 C      -14.6710   -38.7910   -21.9020 C.3   1 <1>  -0.1600 
 35 H1     -14.9650   -38.9600   -20.8670 H     1 <1>   0.0800 
 36 H2     -14.3890   -37.7440   -22.0140 H     1 <1>   0.0800 
 37 C      -15.8750   -39.1000   -22.8030 C.3   1 <1>   0.3430 
 38 H1     -16.7060   -38.4890   -22.4770 H     1 <1>   0.0800 
 39 H2     -15.6460   -38.7290   -23.7920 H     1 <1>   0.0800 
 40 C      -19.6240   -40.8590   -22.6220 C.ar  1 <1>  -0.1500 
 41 H      -19.4150   -41.8500   -22.3080 H     1 <1>   0.1500 
 42 C      -20.8170   -40.2680   -22.2450 C.ar  1 <1>  -0.1500 
 43 H      -21.5090   -40.8050   -21.6480 H     1 <1>   0.1500 
@<TRIPOS>BOND
  1   1   2  1   
  2   1   3  ar  
  3   1  42  ar  
  4   3   4  1   
  5   3  17  ar  
  6   4   5  1   
  7   4   6  1   
  8   4   7  1   
  9   7   8  1   
 10   7   9  1   
 11   7  13  1   
 12   9  10  1   
 13   9  11  1   
 14   9  12  1   
 15  13  14  1   
 16  13  15  1   
 17  13  16  1   
 18  17  18  1   
 19  17  19  ar  
 20  19  20  1   
 21  19  40  ar  
 22  20  21  1   
 23  20  22  1   
 24  20  23  1   
 25  23  24  1   
 26  23  25  1   
 27  23  37  1   
 28  25  26  1   
 29  25  27  1   
 30  25  28  1   
 31  28  29  1   
 32  28  30  1   
 33  28  31  1   
 34  31  32  1   
 35  31  33  1   
 36  31  34  1   
 37  34  35  1   
 38  34  36  1   
 39  34  37  1   
 40  37  38  1   
 41  37  39  1   
 42  40  41  1   
 43  40  42  ar  
 44  42  43  1   
@<TRIPOS>SUBSTRUCTURE
  1 ****  17 GROUP 4 **** **** 0
@<TRIPOS>PROPERTY_DATA
rseq	|	1
mseq	|	4
S	|	-6.09426116943359
rmsd_refine	|	1.24873197078705
E_conf	|	-102.993278503418
E_place	|	-51.7575721740723
E_score1	|	-9.65044975280762
E_refine	|	-26.8842315673828
E_score2	|	-6.09426116943359
Field_1	|	3
Field_2	|	HM-1-35
E_orig	|	1.08131790161133
PLIF_pronum	|	1
PLIF_raw	|	[[2,7],[6787,3013],[438,197],[7,7],[0.5087386865,1.302493163]]
FP:PLIF	|	8 4
PLIF_ligidx	|	[7,2]

# MOE 2020.09 (io_trps.svl 2020.11)

@<TRIPOS>MOLECULE
2XQJ
48 48 1 0 0 
SMALL
USER_CHARGES


@<TRIPOS>ATOM
  1 C      -20.4200   -38.4120   -24.4800 C.ar  1 <1>  -0.1710 
  2 O      -19.9850   -37.7370   -23.4750 O.3   1 <1>  -0.8290 
  3 C      -20.6340   -39.8010   -24.3880 C.ar  1 <1>  -0.1440 
  4 C      -20.5570   -40.4820   -23.0500 C.3   1 <1>   0.4860 
  5 H1     -20.0220   -39.8310   -22.3720 H     1 <1>   0.0800 
  6 H2     -19.9230   -41.3530   -23.1380 H     1 <1>   0.0800 
  7 N      -21.9230   -40.8320   -22.5310 N.4   1 <1>  -0.9590 
  8 H      -22.5500   -40.4080   -23.2030 H     1 <1>   0.4500 
  9 C      -22.2520   -40.1720   -21.2280 C.3   1 <1>   0.3430 
 10 H1     -22.2610   -39.0960   -21.3450 H     1 <1>   0.0800 
 11 H2     -23.2630   -40.4040   -20.9230 H     1 <1>   0.0800 
 12 C      -21.3170   -40.5060   -20.0650 C.3   1 <1>  -0.2400 
 13 H1     -20.3030   -40.1940   -20.2990 H     1 <1>   0.0800 
 14 H2     -21.3150   -41.5760   -19.8580 H     1 <1>   0.0800 
 15 H3     -21.6330   -39.9690   -19.1730 H     1 <1>   0.0800 
 16 C      -22.2210   -42.3010   -22.5750 C.3   1 <1>   0.3430 
 17 H1     -21.7310   -42.7610   -23.4220 H     1 <1>   0.0800 
 18 H2     -21.7990   -42.8160   -21.7220 H     1 <1>   0.0800 
 19 C      -23.7090   -42.6470   -22.6700 C.3   1 <1>  -0.2400 
 20 H1     -23.8350   -43.7210   -22.7940 H     1 <1>   0.0800 
 21 H2     -24.1580   -42.1550   -23.5320 H     1 <1>   0.0800 
 22 H3     -24.2400   -42.3370   -21.7700 H     1 <1>   0.0800 
 23 C      -21.0370   -40.5360   -25.4880 C.ar  1 <1>  -0.1500 
 24 H      -21.1720   -41.5690   -25.3530 H     1 <1>   0.1500 
 25 C      -21.3110   -39.9280   -26.7150 C.ar  1 <1>  -0.1440 
 26 C      -21.9010   -40.6470   -27.9250 C.3   1 <1>   0.4870 
 27 H1     -21.6800   -40.0150   -28.7760 H     1 <1>   0.0800 
 28 H2     -22.9670   -40.5390   -27.8420 H     1 <1>   0.0800 
 29 N      -21.5960   -42.0890   -28.2970 N.4   1 <1>  -0.9590 
 30 H      -20.6280   -42.0960   -28.5900 H     1 <1>   0.4500 
 31 C      -21.7200   -43.1290   -27.2100 C.3   1 <1>   0.3430 
 32 H1     -21.5640   -44.1200   -27.6150 H     1 <1>   0.0800 
 33 H2     -20.9090   -43.0420   -26.5020 H     1 <1>   0.0800 
 34 C      -23.0410   -43.1600   -26.4320 C.3   1 <1>  -0.2400 
 35 H1     -23.0070   -43.9260   -25.6600 H     1 <1>   0.0800 
 36 H2     -23.2140   -42.2140   -25.9290 H     1 <1>   0.0800 
 37 H3     -23.8810   -43.3700   -27.0930 H     1 <1>   0.0800 
 38 C      -22.4190   -42.4630   -29.4990 C.3   1 <1>   0.3430 
 39 H1     -23.4540   -42.5930   -29.2110 H     1 <1>   0.0800 
 40 H2     -22.4590   -41.6470   -30.2090 H     1 <1>   0.0800 
 41 C      -21.9980   -43.7150   -30.2670 C.3   1 <1>  -0.2400 
 42 H1     -22.7940   -43.9980   -30.9490 H     1 <1>   0.0800 
 43 H2     -21.1070   -43.5340   -30.8620 H     1 <1>   0.0800 
 44 H3     -21.8150   -44.5520   -29.5970 H     1 <1>   0.0800 
 45 C      -21.1530   -38.5420   -26.8000 C.ar  1 <1>  -0.1500 
 46 H      -21.3780   -38.0430   -27.7070 H     1 <1>   0.1500 
 47 C      -20.7180   -37.7960   -25.7130 C.ar  1 <1>  -0.1500 
 48 H      -20.6110   -36.7460   -25.7990 H     1 <1>   0.1500 
@<TRIPOS>BOND
  1   1   2  1   
  2   1   3  ar  
  3   1  47  ar  
  4   3   4  1   
  5   3  23  ar  
  6   4   5  1   
  7   4   6  1   
  8   4   7  1   
  9   7   8  1   
 10   7   9  1   
 11   7  16  1   
 12   9  10  1   
 13   9  11  1   
 14   9  12  1   
 15  12  13  1   
 16  12  14  1   
 17  12  15  1   
 18  16  17  1   
 19  16  18  1   
 20  16  19  1   
 21  19  20  1   
 22  19  21  1   
 23  19  22  1   
 24  23  24  1   
 25  23  25  ar  
 26  25  26  1   
 27  25  45  ar  
 28  26  27  1   
 29  26  28  1   
 30  26  29  1   
 31  29  30  1   
 32  29  31  1   
 33  29  38  1   
 34  31  32  1   
 35  31  33  1   
 36  31  34  1   
 37  34  35  1   
 38  34  36  1   
 39  34  37  1   
 40  38  39  1   
 41  38  40  1   
 42  38  41  1   
 43  41  42  1   
 44  41  43  1   
 45  41  44  1   
 46  45  46  1   
 47  45  47  ar  
 48  47  48  1   
@<TRIPOS>SUBSTRUCTURE
  1 ****  23 GROUP 4 **** **** 0
@<TRIPOS>PROPERTY_DATA
rseq	|	1
mseq	|	5
S	|	-6.75864028930664
rmsd_refine	|	1.94832646846771
E_conf	|	-158.030853271484
E_place	|	-51.3251457214355
E_score1	|	-9.71616840362549
E_refine	|	-32.1178016662598
E_score2	|	-6.75864028930664
Field_1	|	4
Field_2	|	cc-2-75
E_orig	|	3.291090965271
PLIF_pronum	|	1
PLIF_raw	|	[[29,2,2,1,47,45,25,23,3],[1842,6787,6787,1785,1785,1785,1785,1785,1785],[120,438,438,116,116,116,116,116,116],[1,2,7,10,10,10,10,10,10],[4,3.1,2.399893852,0.5,0.5,0.5,0.5,0.5,0.5]]
FP:PLIF	|	18 17 19 9 10 4
PLIF_ligidx	|	[[1,47,45,25,23,3],29,29,2,2,2]

# MOE 2020.09 (io_trps.svl 2020.11)

@<TRIPOS>MOLECULE
2XQJ
48 48 1 0 0 
SMALL
USER_CHARGES


@<TRIPOS>ATOM
  1 C      -22.8720   -39.5910   -20.9490 C.ar  1 <1>  -0.1710 
  2 O      -23.2760   -40.1930   -19.8890 O.3   1 <1>  -0.8290 
  3 C      -21.7400   -40.0320   -21.6770 C.ar  1 <1>  -0.1440 
  4 C      -20.9750   -41.2580   -21.2340 C.3   1 <1>   0.4860 
  5 H1     -20.3600   -40.9530   -20.3980 H     1 <1>   0.0800 
  6 H2     -20.2580   -41.5120   -22.0020 H     1 <1>   0.0800 
  7 N      -21.8050   -42.4480   -20.8600 N.4   1 <1>  -0.9590 
  8 H      -22.5390   -42.0530   -20.2780 H     1 <1>   0.4500 
  9 C      -21.0350   -43.4090   -20.0040 C.3   1 <1>   0.3430 
 10 H1     -20.5010   -42.8800   -19.2260 H     1 <1>   0.0800 
 11 H2     -21.7080   -44.0430   -19.4470 H     1 <1>   0.0800 
 12 C      -20.0310   -44.3100   -20.7390 C.3   1 <1>  -0.2400 
 13 H1     -19.5270   -44.9640   -20.0270 H     1 <1>   0.0800 
 14 H2     -19.2790   -43.7150   -21.2540 H     1 <1>   0.0800 
 15 H3     -20.5320   -44.9440   -21.4700 H     1 <1>   0.0800 
 16 C      -22.5090   -43.1080   -22.0190 C.3   1 <1>   0.3430 
 17 H1     -21.8700   -43.1550   -22.8900 H     1 <1>   0.0800 
 18 H2     -22.6950   -44.1480   -21.7900 H     1 <1>   0.0800 
 19 C      -23.8540   -42.5040   -22.4350 C.3   1 <1>  -0.2400 
 20 H1     -24.3280   -43.1350   -23.1880 H     1 <1>   0.0800 
 21 H2     -23.7240   -41.5110   -22.8630 H     1 <1>   0.0800 
 22 H3     -24.5230   -42.4320   -21.5770 H     1 <1>   0.0800 
 23 C      -21.3160   -39.3410   -22.8020 C.ar  1 <1>  -0.1500 
 24 H      -20.4630   -39.6810   -23.3280 H     1 <1>   0.1500 
 25 C      -21.9980   -38.2100   -23.2510 C.ar  1 <1>  -0.1440 
 26 C      -21.5730   -37.4730   -24.4970 C.3   1 <1>   0.4870 
 27 H1     -20.5140   -37.2640   -24.4280 H     1 <1>   0.0800 
 28 H2     -22.0280   -36.4920   -24.4580 H     1 <1>   0.0800 
 29 N      -21.9140   -38.1670   -25.7870 N.4   1 <1>  -0.9590 
 30 H      -22.8310   -38.5730   -25.6530 H     1 <1>   0.4500 
 31 C      -22.0400   -37.1830   -26.9110 C.3   1 <1>   0.3430 
 32 H1     -22.7580   -36.4150   -26.6550 H     1 <1>   0.0800 
 33 H2     -21.1210   -36.6320   -27.0410 H     1 <1>   0.0800 
 34 C      -22.4470   -37.7560   -28.2690 C.3   1 <1>  -0.2400 
 35 H1     -23.4080   -38.2600   -28.1940 H     1 <1>   0.0800 
 36 H2     -22.5320   -36.9510   -28.9990 H     1 <1>   0.0800 
 37 H3     -21.7080   -38.4690   -28.6310 H     1 <1>   0.0800 
 38 C      -20.9800   -39.3050   -26.0970 C.3   1 <1>   0.3430 
 39 H1     -20.4650   -39.1380   -27.0340 H     1 <1>   0.0800 
 40 H2     -20.1760   -39.3440   -25.3750 H     1 <1>   0.0800 
 41 C      -21.6120   -40.6950   -26.1630 C.3   1 <1>  -0.2400 
 42 H1     -22.2490   -40.7830   -27.0420 H     1 <1>   0.0800 
 43 H2     -20.8340   -41.4540   -26.2430 H     1 <1>   0.0800 
 44 H3     -22.2030   -40.8980   -25.2690 H     1 <1>   0.0800 
 45 C      -23.1130   -37.7720   -22.5430 C.ar  1 <1>  -0.1500 
 46 H      -23.6340   -36.9090   -22.8660 H     1 <1>   0.1500 
 47 C      -23.5540   -38.4520   -21.4230 C.ar  1 <1>  -0.1500 
 48 H      -24.4170   -38.1170   -20.9100 H     1 <1>   0.1500 
@<TRIPOS>BOND
  1   1   2  1   
  2   1   3  ar  
  3   1  47  ar  
  4   3   4  1   
  5   3  23  ar  
  6   4   5  1   
  7   4   6  1   
  8   4   7  1   
  9   7   8  1   
 10   7   9  1   
 11   7  16  1   
 12   9  10  1   
 13   9  11  1   
 14   9  12  1   
 15  12  13  1   
 16  12  14  1   
 17  12  15  1   
 18  16  17  1   
 19  16  18  1   
 20  16  19  1   
 21  19  20  1   
 22  19  21  1   
 23  19  22  1   
 24  23  24  1   
 25  23  25  ar  
 26  25  26  1   
 27  25  45  ar  
 28  26  27  1   
 29  26  28  1   
 30  26  29  1   
 31  29  30  1   
 32  29  31  1   
 33  29  38  1   
 34  31  32  1   
 35  31  33  1   
 36  31  34  1   
 37  34  35  1   
 38  34  36  1   
 39  34  37  1   
 40  38  39  1   
 41  38  40  1   
 42  38  41  1   
 43  41  42  1   
 44  41  43  1   
 45  41  44  1   
 46  45  46  1   
 47  45  47  ar  
 48  47  48  1   
@<TRIPOS>SUBSTRUCTURE
  1 ****  23 GROUP 4 **** **** 0
@<TRIPOS>PROPERTY_DATA
rseq	|	1
mseq	|	5
S	|	-6.74692296981812
rmsd_refine	|	3.30053687095642
E_conf	|	-165.200225830078
E_place	|	-62.9897079467773
E_score1	|	-9.99685668945312
E_refine	|	-33.9773406982422
E_score2	|	-6.74692296981812
Field_1	|	4
Field_2	|	cc-2-75
E_orig	|	2.40000009536743
PLIF_pronum	|	1
PLIF_raw	|	[[],[],[],[],[]]
FP:PLIF	|	
PLIF_ligidx	|	[]

# MOE 2020.09 (io_trps.svl 2020.11)

@<TRIPOS>MOLECULE
2XQJ
48 48 1 0 0 
SMALL
USER_CHARGES


@<TRIPOS>ATOM
  1 C      -20.3260   -38.0730   -24.1890 C.ar  1 <1>  -0.1710 
  2 O      -19.1870   -37.8750   -24.7280 O.3   1 <1>  -0.8290 
  3 C      -21.0790   -39.2460   -24.4350 C.ar  1 <1>  -0.1440 
  4 C      -20.7150   -40.2020   -25.5440 C.3   1 <1>   0.4860 
  5 H1     -20.8130   -41.2030   -25.1500 H     1 <1>   0.0800 
  6 H2     -19.6610   -40.1140   -25.7610 H     1 <1>   0.0800 
  7 N      -21.5710   -40.0040   -26.7650 N.4   1 <1>  -0.9590 
  8 H      -22.4760   -39.7480   -26.3990 H     1 <1>   0.4500 
  9 C      -21.7900   -41.2350   -27.6080 C.3   1 <1>   0.3430 
 10 H1     -22.5290   -41.0320   -28.3720 H     1 <1>   0.0800 
 11 H2     -20.9090   -41.4810   -28.1780 H     1 <1>   0.0800 
 12 C      -22.2300   -42.5060   -26.8730 C.3   1 <1>  -0.2400 
 13 H1     -22.5130   -43.2720   -27.5950 H     1 <1>   0.0800 
 14 H2     -23.0840   -42.3110   -26.2280 H     1 <1>   0.0800 
 15 H3     -21.4170   -42.9030   -26.2650 H     1 <1>   0.0800 
 16 C      -21.1180   -38.8150   -27.5610 C.3   1 <1>   0.3430 
 17 H1     -20.5780   -38.1210   -26.9290 H     1 <1>   0.0800 
 18 H2     -20.3890   -39.0970   -28.3090 H     1 <1>   0.0800 
 19 C      -22.2320   -38.0210   -28.2390 C.3   1 <1>  -0.2400 
 20 H1     -21.8240   -37.1430   -28.7380 H     1 <1>   0.0800 
 21 H2     -22.9490   -37.6800   -27.4970 H     1 <1>   0.0800 
 22 H3     -22.7430   -38.6300   -28.9790 H     1 <1>   0.0800 
 23 C      -22.2040   -39.5140   -23.6790 C.ar  1 <1>  -0.1500 
 24 H      -22.7380   -40.4160   -23.8380 H     1 <1>   0.1500 
 25 C      -22.6360   -38.6230   -22.7030 C.ar  1 <1>  -0.1440 
 26 C      -23.7150   -39.0440   -21.7520 C.3   1 <1>   0.4870 
 27 H1     -24.2750   -39.8340   -22.2320 H     1 <1>   0.0800 
 28 H2     -24.4240   -38.2320   -21.6550 H     1 <1>   0.0800 
 29 N      -23.1960   -39.4870   -20.4090 N.4   1 <1>  -0.9590 
 30 H      -22.9210   -38.6250   -19.9570 H     1 <1>   0.4500 
 31 C      -24.2610   -40.0500   -19.5330 C.3   1 <1>   0.3430 
 32 H1     -23.8280   -40.5260   -18.6750 H     1 <1>   0.0800 
 33 H2     -24.8260   -39.2520   -19.0820 H     1 <1>   0.0800 
 34 C      -25.2340   -41.0490   -20.1660 C.3   1 <1>  -0.2400 
 35 H1     -25.7330   -41.5950   -19.3730 H     1 <1>   0.0800 
 36 H2     -24.7310   -41.7770   -20.7970 H     1 <1>   0.0800 
 37 H3     -25.9870   -40.5380   -20.7640 H     1 <1>   0.0800 
 38 C      -21.9220   -40.3250   -20.4490 C.3   1 <1>   0.3430 
 39 H1     -21.1700   -39.8340   -21.0520 H     1 <1>   0.0800 
 40 H2     -21.4640   -40.3590   -19.4690 H     1 <1>   0.0800 
 41 C      -22.0190   -41.7730   -20.9480 C.3   1 <1>  -0.2400 
 42 H1     -21.0190   -42.1970   -21.0370 H     1 <1>   0.0800 
 43 H2     -22.4960   -41.8220   -21.9260 H     1 <1>   0.0800 
 44 H3     -22.5790   -42.3930   -20.2500 H     1 <1>   0.0800 
 45 C      -21.9930   -37.3960   -22.5640 C.ar  1 <1>  -0.1500 
 46 H      -22.3520   -36.6810   -21.8700 H     1 <1>   0.1500 
 47 C      -20.8560   -37.1200   -23.2970 C.ar  1 <1>  -0.1500 
 48 H      -20.3560   -36.1950   -23.1730 H     1 <1>   0.1500 
@<TRIPOS>BOND
  1   1   2  1   
  2   1   3  ar  
  3   1  47  ar  
  4   3   4  1   
  5   3  23  ar  
  6   4   5  1   
  7   4   6  1   
  8   4   7  1   
  9   7   8  1   
 10   7   9  1   
 11   7  16  1   
 12   9  10  1   
 13   9  11  1   
 14   9  12  1   
 15  12  13  1   
 16  12  14  1   
 17  12  15  1   
 18  16  17  1   
 19  16  18  1   
 20  16  19  1   
 21  19  20  1   
 22  19  21  1   
 23  19  22  1   
 24  23  24  1   
 25  23  25  ar  
 26  25  26  1   
 27  25  45  ar  
 28  26  27  1   
 29  26  28  1   
 30  26  29  1   
 31  29  30  1   
 32  29  31  1   
 33  29  38  1   
 34  31  32  1   
 35  31  33  1   
 36  31  34  1   
 37  34  35  1   
 38  34  36  1   
 39  34  37  1   
 40  38  39  1   
 41  38  40  1   
 42  38  41  1   
 43  41  42  1   
 44  41  43  1   
 45  41  44  1   
 46  45  46  1   
 47  45  47  ar  
 48  47  48  1   
@<TRIPOS>SUBSTRUCTURE
  1 ****  23 GROUP 4 **** **** 0
@<TRIPOS>PROPERTY_DATA
rseq	|	1
mseq	|	5
S	|	-6.66963577270508
rmsd_refine	|	1.80569016933441
E_conf	|	-163.019821166992
E_place	|	-64.4854507446289
E_score1	|	-9.89486885070801
E_refine	|	-29.9492778778076
E_score2	|	-6.66963577270508
Field_1	|	4
Field_2	|	cc-2-75
E_orig	|	1.69213151931763
PLIF_pronum	|	1
PLIF_raw	|	[[9,29],[1842,6776],[120,438],[1,3],[0.7,1.1]]
FP:PLIF	|	17 25
PLIF_ligidx	|	[9,29]

# MOE 2020.09 (io_trps.svl 2020.11)

@<TRIPOS>MOLECULE
2XQJ
48 48 1 0 0 
SMALL
USER_CHARGES


@<TRIPOS>ATOM
  1 C      -19.3900   -38.3440   -23.9760 C.ar  1 <1>  -0.1710 
  2 O      -18.1640   -38.3080   -24.3550 O.3   1 <1>  -0.8290 
  3 C      -20.1800   -39.5080   -24.1080 C.ar  1 <1>  -0.1440 
  4 C      -19.6860   -40.6710   -24.9440 C.3   1 <1>   0.4860 
  5 H1     -19.7620   -41.5660   -24.3420 H     1 <1>   0.0800 
  6 H2     -18.6190   -40.5490   -25.0740 H     1 <1>   0.0800 
  7 N      -20.3740   -40.8540   -26.2920 N.4   1 <1>  -0.9590 
  8 H      -19.6220   -40.8410   -26.9690 H     1 <1>   0.4500 
  9 C      -21.2690   -39.7000   -26.6950 C.3   1 <1>   0.3430 
 10 H1     -22.2100   -39.7410   -26.1640 H     1 <1>   0.0800 
 11 H2     -20.8410   -38.7560   -26.3800 H     1 <1>   0.0800 
 12 C      -21.5690   -39.5710   -28.1890 C.3   1 <1>  -0.2400 
 13 H1     -22.2800   -38.7630   -28.3570 H     1 <1>   0.0800 
 14 H2     -21.9940   -40.4930   -28.5870 H     1 <1>   0.0800 
 15 H3     -20.6570   -39.3360   -28.7350 H     1 <1>   0.0800 
 16 C      -21.0170   -42.2090   -26.4680 C.3   1 <1>   0.3430 
 17 H1     -21.4050   -42.3120   -27.4730 H     1 <1>   0.0800 
 18 H2     -20.2720   -42.9920   -26.4070 H     1 <1>   0.0800 
 19 C      -22.1470   -42.5700   -25.4970 C.3   1 <1>  -0.2400 
 20 H1     -22.5900   -43.5250   -25.7820 H     1 <1>   0.0800 
 21 H2     -22.9300   -41.8150   -25.5150 H     1 <1>   0.0800 
 22 H3     -21.7680   -42.6660   -24.4800 H     1 <1>   0.0800 
 23 C      -21.4420   -39.5640   -23.5400 C.ar  1 <1>  -0.1500 
 24 H      -22.0070   -40.4480   -23.6460 H     1 <1>   0.1500 
 25 C      -21.9830   -38.4710   -22.8650 C.ar  1 <1>  -0.1440 
 26 C      -23.3450   -38.5250   -22.2130 C.3   1 <1>   0.4870 
 27 H1     -24.0550   -38.5110   -23.0240 H     1 <1>   0.0800 
 28 H2     -23.5060   -37.5720   -21.7260 H     1 <1>   0.0800 
 29 N      -23.6640   -39.6630   -21.2590 N.4   1 <1>  -0.9590 
 30 H      -24.5920   -39.4370   -20.9280 H     1 <1>   0.4500 
 31 C      -23.8140   -40.9960   -21.9290 C.3   1 <1>   0.3430 
 32 H1     -24.2140   -40.8810   -22.9270 H     1 <1>   0.0800 
 33 H2     -22.8540   -41.4650   -22.0940 H     1 <1>   0.0800 
 34 C      -24.7010   -41.9860   -21.1850 C.3   1 <1>  -0.2400 
 35 H1     -24.2740   -42.2450   -20.2160 H     1 <1>   0.0800 
 36 H2     -24.8070   -42.9000   -21.7700 H     1 <1>   0.0800 
 37 H3     -25.6860   -41.5460   -21.0320 H     1 <1>   0.0800 
 38 C      -22.8170   -39.7110   -20.0140 C.3   1 <1>   0.3430 
 39 H1     -22.6580   -38.7150   -19.6270 H     1 <1>   0.0800 
 40 H2     -23.3630   -40.1950   -19.2160 H     1 <1>   0.0800 
 41 C      -21.4520   -40.4140   -20.1130 C.3   1 <1>  -0.2400 
 42 H1     -20.9160   -40.3110   -19.1710 H     1 <1>   0.0800 
 43 H2     -20.8280   -39.9830   -20.8930 H     1 <1>   0.0800 
 44 H3     -21.5720   -41.4790   -20.3130 H     1 <1>   0.0800 
 45 C      -21.2630   -37.2780   -22.8480 C.ar  1 <1>  -0.1500 
 46 H      -21.6810   -36.4110   -22.4040 H     1 <1>   0.1500 
 47 C      -19.9980   -37.2090   -23.4020 C.ar  1 <1>  -0.1500 
 48 H      -19.4710   -36.2940   -23.3880 H     1 <1>   0.1500 
@<TRIPOS>BOND
  1   1   2  1   
  2   1   3  ar  
  3   1  47  ar  
  4   3   4  1   
  5   3  23  ar  
  6   4   5  1   
  7   4   6  1   
  8   4   7  1   
  9   7   8  1   
 10   7   9  1   
 11   7  16  1   
 12   9  10  1   
 13   9  11  1   
 14   9  12  1   
 15  12  13  1   
 16  12  14  1   
 17  12  15  1   
 18  16  17  1   
 19  16  18  1   
 20  16  19  1   
 21  19  20  1   
 22  19  21  1   
 23  19  22  1   
 24  23  24  1   
 25  23  25  ar  
 26  25  26  1   
 27  25  45  ar  
 28  26  27  1   
 29  26  28  1   
 30  26  29  1   
 31  29  30  1   
 32  29  31  1   
 33  29  38  1   
 34  31  32  1   
 35  31  33  1   
 36  31  34  1   
 37  34  35  1   
 38  34  36  1   
 39  34  37  1   
 40  38  39  1   
 41  38  40  1   
 42  38  41  1   
 43  41  42  1   
 44  41  43  1   
 45  41  44  1   
 46  45  46  1   
 47  45  47  ar  
 48  47  48  1   
@<TRIPOS>SUBSTRUCTURE
  1 ****  23 GROUP 4 **** **** 0
@<TRIPOS>PROPERTY_DATA
rseq	|	1
mseq	|	5
S	|	-6.6663875579834
rmsd_refine	|	2.28663945198059
E_conf	|	-163.195449829102
E_place	|	-44.8797798156738
E_score1	|	-9.60038185119629
E_refine	|	-34.2183303833008
E_score2	|	-6.6663875579834
Field_1	|	4
Field_2	|	cc-2-75
E_orig	|	1.00506615638733
PLIF_pronum	|	1
PLIF_raw	|	[7,1842,120,1,4.3]
FP:PLIF	|	17 19
PLIF_ligidx	|	[7,7]

# MOE 2020.09 (io_trps.svl 2020.11)

@<TRIPOS>MOLECULE
2XQJ
48 48 1 0 0 
SMALL
USER_CHARGES


@<TRIPOS>ATOM
  1 C      -19.7600   -38.9700   -24.2290 C.ar  1 <1>  -0.1710 
  2 O      -19.4130   -37.8950   -23.6110 O.3   1 <1>  -0.8290 
  3 C      -20.9590   -39.0730   -24.9860 C.ar  1 <1>  -0.1440 
  4 C      -21.9980   -37.9850   -25.1150 C.3   1 <1>   0.4860 
  5 H1     -22.9710   -38.4560   -25.1450 H     1 <1>   0.0800 
  6 H2     -21.8970   -37.5840   -26.1130 H     1 <1>   0.0800 
  7 N      -21.9750   -36.9020   -24.0980 N.4   1 <1>  -0.9590 
  8 H      -21.0220   -36.9120   -23.7460 H     1 <1>   0.4500 
  9 C      -22.8630   -37.1230   -22.9090 C.3   1 <1>   0.3430 
 10 H1     -22.6120   -36.4210   -22.1250 H     1 <1>   0.0800 
 11 H2     -23.8870   -36.8780   -23.1490 H     1 <1>   0.0800 
 12 C      -22.8600   -38.5260   -22.2910 C.3   1 <1>  -0.2400 
 13 H1     -23.4450   -38.5280   -21.3710 H     1 <1>   0.0800 
 14 H2     -21.8430   -38.8420   -22.0600 H     1 <1>   0.0800 
 15 H3     -23.3010   -39.2520   -22.9740 H     1 <1>   0.0800 
 16 C      -22.1750   -35.5740   -24.7330 C.3   1 <1>   0.3430 
 17 H1     -23.1250   -35.5150   -25.2370 H     1 <1>   0.0800 
 18 H2     -22.2390   -34.8000   -23.9820 H     1 <1>   0.0800 
 19 C      -21.0910   -35.1980   -25.7440 C.3   1 <1>  -0.2400 
 20 H1     -21.1410   -34.1360   -25.9780 H     1 <1>   0.0800 
 21 H2     -21.2040   -35.7660   -26.6650 H     1 <1>   0.0800 
 22 H3     -20.1130   -35.4140   -25.3180 H     1 <1>   0.0800 
 23 C      -21.2400   -40.2290   -25.6820 C.ar  1 <1>  -0.1500 
 24 H      -22.1140   -40.2590   -26.2770 H     1 <1>   0.1500 
 25 C      -20.4180   -41.3480   -25.6120 C.ar  1 <1>  -0.1440 
 26 C      -20.8290   -42.5990   -26.3470 C.3   1 <1>   0.4870 
 27 H1     -20.3250   -43.4480   -25.9050 H     1 <1>   0.0800 
 28 H2     -20.4040   -42.5320   -27.3380 H     1 <1>   0.0800 
 29 N      -22.3300   -42.8030   -26.3900 N.4   1 <1>  -0.9590 
 30 H      -22.7130   -41.8810   -26.2510 H     1 <1>   0.4500 
 31 C      -22.9050   -43.2410   -27.7140 C.3   1 <1>   0.3430 
 32 H1     -23.6520   -44.0040   -27.5520 H     1 <1>   0.0800 
 33 H2     -23.4750   -42.4370   -28.1600 H     1 <1>   0.0800 
 34 C      -21.9430   -43.7600   -28.7890 C.3   1 <1>  -0.2400 
 35 H1     -22.4970   -44.1350   -29.6490 H     1 <1>   0.0800 
 36 H2     -21.3190   -44.5660   -28.4050 H     1 <1>   0.0800 
 37 H3     -21.3170   -42.9460   -29.1440 H     1 <1>   0.0800 
 38 C      -22.8620   -43.5930   -25.2290 C.3   1 <1>   0.3430 
 39 H1     -23.8510   -43.9700   -25.4520 H     1 <1>   0.0800 
 40 H2     -22.2780   -44.4890   -25.0650 H     1 <1>   0.0800 
 41 C      -22.9610   -42.8330   -23.9030 C.3   1 <1>  -0.2400 
 42 H1     -23.4190   -43.4700   -23.1450 H     1 <1>   0.0800 
 43 H2     -23.5750   -41.9400   -24.0170 H     1 <1>   0.0800 
 44 H3     -21.9740   -42.5390   -23.5470 H     1 <1>   0.0800 
 45 C      -19.2510   -41.2750   -24.8530 C.ar  1 <1>  -0.1500 
 46 H      -18.6090   -42.1150   -24.7890 H     1 <1>   0.1500 
 47 C      -18.9240   -40.1100   -24.1770 C.ar  1 <1>  -0.1500 
 48 H      -18.0330   -40.0650   -23.6060 H     1 <1>   0.1500 
@<TRIPOS>BOND
  1   1   2  1   
  2   1   3  ar  
  3   1  47  ar  
  4   3   4  1   
  5   3  23  ar  
  6   4   5  1   
  7   4   6  1   
  8   4   7  1   
  9   7   8  1   
 10   7   9  1   
 11   7  16  1   
 12   9  10  1   
 13   9  11  1   
 14   9  12  1   
 15  12  13  1   
 16  12  14  1   
 17  12  15  1   
 18  16  17  1   
 19  16  18  1   
 20  16  19  1   
 21  19  20  1   
 22  19  21  1   
 23  19  22  1   
 24  23  24  1   
 25  23  25  ar  
 26  25  26  1   
 27  25  45  ar  
 28  26  27  1   
 29  26  28  1   
 30  26  29  1   
 31  29  30  1   
 32  29  31  1   
 33  29  38  1   
 34  31  32  1   
 35  31  33  1   
 36  31  34  1   
 37  34  35  1   
 38  34  36  1   
 39  34  37  1   
 40  38  39  1   
 41  38  40  1   
 42  38  41  1   
 43  41  42  1   
 44  41  43  1   
 45  41  44  1   
 46  45  46  1   
 47  45  47  ar  
 48  47  48  1   
@<TRIPOS>SUBSTRUCTURE
  1 ****  23 GROUP 4 **** **** 0
@<TRIPOS>PROPERTY_DATA
rseq	|	1
mseq	|	5
S	|	-6.54474925994873
rmsd_refine	|	1.6362065076828
E_conf	|	-158.020614624023
E_place	|	-53.5207557678223
E_score1	|	-11.3134212493896
E_refine	|	-31.7469921112061
E_score2	|	-6.54474925994873
Field_1	|	4
Field_2	|	cc-2-75
E_orig	|	0.800000011920929
PLIF_pronum	|	1
PLIF_raw	|	[[2,2,7,1,47,45,25,23,3],[6787,6787,3013,1785,1785,1785,1785,1785,1785],[438,438,197,116,116,116,116,116,116],[2,7,7,10,10,10,10,10,10],[1.6,1.905543522,1.337711445,1,1,1,1,1,1]]
FP:PLIF	|	18 26 8 9 10 4
PLIF_ligidx	|	[[1,47,45,25,23,3],[1,47,45,25,23,3],7,2,2,2]

# MOE 2020.09 (io_trps.svl 2020.11)

@<TRIPOS>MOLECULE
2XQJ
46 47 1 0 0 
SMALL
USER_CHARGES


@<TRIPOS>ATOM
  1 C      -19.8330   -41.0700   -24.5510 C.ar  1 <1>  -0.1710 
  2 O      -20.9010   -41.5800   -25.0450 O.3   1 <1>  -0.8290 
  3 C      -19.8940   -40.0260   -23.6020 C.ar  1 <1>  -0.1440 
  4 C      -21.2410   -39.4700   -23.2140 C.3   1 <1>   0.4870 
  5 H1     -21.2250   -39.2750   -22.1500 H     1 <1>   0.0800 
  6 H2     -21.9810   -40.2520   -23.3260 H     1 <1>   0.0800 
  7 N      -21.6170   -38.2450   -23.9880 N.4   1 <1>  -0.9590 
  8 H      -20.8020   -37.6520   -23.9840 H     1 <1>   0.4500 
  9 C      -21.8930   -38.5660   -25.4350 C.3   1 <1>   0.3430 
 10 H1     -21.2080   -39.3220   -25.7930 H     1 <1>   0.0800 
 11 H2     -22.8620   -39.0300   -25.5520 H     1 <1>   0.0800 
 12 C      -21.7940   -37.3880   -26.4050 C.3   1 <1>  -0.2400 
 13 H1     -21.8840   -37.7400   -27.4330 H     1 <1>   0.0800 
 14 H2     -20.8340   -36.8900   -26.2890 H     1 <1>   0.0800 
 15 H3     -22.5840   -36.6620   -26.2240 H     1 <1>   0.0800 
 16 C      -22.7140   -37.4680   -23.3400 C.3   1 <1>   0.3430 
 17 H1     -23.6460   -37.6170   -23.8620 H     1 <1>   0.0800 
 18 H2     -22.9220   -37.8300   -22.3420 H     1 <1>   0.0800 
 19 C      -22.4490   -35.9690   -23.2500 C.3   1 <1>  -0.2400 
 20 H1     -23.3550   -35.4370   -22.9740 H     1 <1>   0.0800 
 21 H2     -22.1190   -35.5710   -24.2070 H     1 <1>   0.0800 
 22 H3     -21.6840   -35.7720   -22.5010 H     1 <1>   0.0800 
 23 C      -18.7320   -39.4750   -23.0860 C.ar  1 <1>  -0.1500 
 24 H      -18.7940   -38.6880   -22.3800 H     1 <1>   0.1500 
 25 C      -17.4810   -39.9280   -23.5010 C.ar  1 <1>  -0.1440 
 26 C      -16.2280   -39.2850   -22.9660 C.3   1 <1>   0.4870 
 27 H1     -16.4730   -38.2650   -22.7210 H     1 <1>   0.0800 
 28 H2     -15.5390   -39.1880   -23.7930 H     1 <1>   0.0800 
 29 N      -15.5600   -39.9540   -21.8060 N.4   1 <1>  -0.9590 
 30 H      -16.1970   -39.9710   -21.0220 H     1 <1>   0.4500 
 31 C      -14.2910   -39.2420   -21.4460 C.3   1 <1>   0.3430 
 32 H1     -14.2590   -38.2270   -21.8200 H     1 <1>   0.0800 
 33 H2     -14.1660   -39.1390   -20.3770 H     1 <1>   0.0800 
 34 C      -13.1110   -40.0400   -22.0100 C.3   1 <1>  -0.1600 
 35 H1     -12.5420   -39.4390   -22.7180 H     1 <1>   0.0800 
 36 H2     -12.4730   -40.3610   -21.1890 H     1 <1>   0.0800 
 37 C      -13.7280   -41.2590   -22.7000 C.3   1 <1>  -0.1600 
 38 H1     -13.1540   -42.1660   -22.5410 H     1 <1>   0.0800 
 39 H2     -13.8040   -41.0700   -23.7680 H     1 <1>   0.0800 
 40 C      -15.1330   -41.3490   -22.1210 C.3   1 <1>   0.3430 
 41 H1     -15.0960   -41.9510   -21.2230 H     1 <1>   0.0800 
 42 H2     -15.7960   -41.8840   -22.7860 H     1 <1>   0.0800 
 43 C      -17.4100   -40.9590   -24.4390 C.ar  1 <1>  -0.1500 
 44 H      -16.4690   -41.3140   -24.7690 H     1 <1>   0.1500 
 45 C      -18.5620   -41.5240   -24.9550 C.ar  1 <1>  -0.1500 
 46 H      -18.4980   -42.3060   -25.6680 H     1 <1>   0.1500 
@<TRIPOS>BOND
  1   1   2  1   
  2   1   3  ar  
  3   1  45  ar  
  4   3   4  1   
  5   3  23  ar  
  6   4   5  1   
  7   4   6  1   
  8   4   7  1   
  9   7   8  1   
 10   7   9  1   
 11   7  16  1   
 12   9  10  1   
 13   9  11  1   
 14   9  12  1   
 15  12  13  1   
 16  12  14  1   
 17  12  15  1   
 18  16  17  1   
 19  16  18  1   
 20  16  19  1   
 21  19  20  1   
 22  19  21  1   
 23  19  22  1   
 24  23  24  1   
 25  23  25  ar  
 26  25  26  1   
 27  25  43  ar  
 28  26  27  1   
 29  26  28  1   
 30  26  29  1   
 31  29  30  1   
 32  29  31  1   
 33  29  40  1   
 34  31  32  1   
 35  31  33  1   
 36  31  34  1   
 37  34  35  1   
 38  34  36  1   
 39  34  37  1   
 40  37  38  1   
 41  37  39  1   
 42  37  40  1   
 43  40  41  1   
 44  40  42  1   
 45  43  44  1   
 46  43  45  ar  
 47  45  46  1   
@<TRIPOS>SUBSTRUCTURE
  1 ****  23 GROUP 4 **** **** 0
@<TRIPOS>PROPERTY_DATA
rseq	|	1
mseq	|	6
S	|	-6.63801240921021
rmsd_refine	|	0.977328181266785
E_conf	|	-130.363632202148
E_place	|	-70.3957443237305
E_score1	|	-9.49763011932373
E_refine	|	-30.3552627563477
E_score2	|	-6.63801240921021
Field_1	|	5
Field_2	|	cc-2-26
E_orig	|	2
PLIF_pronum	|	1
PLIF_raw	|	[26,3024,198,1,0.5]
FP:PLIF	|	27
PLIF_ligidx	|	26

# MOE 2020.09 (io_trps.svl 2020.11)

@<TRIPOS>MOLECULE
2XQJ
46 47 1 0 0 
SMALL
USER_CHARGES


@<TRIPOS>ATOM
  1 C      -20.0320   -39.1530   -23.1820 C.ar  1 <1>  -0.1710 
  2 O      -21.1330   -38.5060   -23.0490 O.3   1 <1>  -0.8290 
  3 C      -19.9520   -40.5690   -23.0820 C.ar  1 <1>  -0.1440 
  4 C      -21.1850   -41.4440   -22.9160 C.3   1 <1>   0.4870 
  5 H1     -20.8880   -42.3490   -22.4040 H     1 <1>   0.0800 
  6 H2     -21.4480   -41.7910   -23.9060 H     1 <1>   0.0800 
  7 N      -22.3830   -40.8300   -22.2540 N.4   1 <1>  -0.9590 
  8 H      -22.4080   -39.8920   -22.6470 H     1 <1>   0.4500 
  9 C      -23.6740   -41.4870   -22.6470 C.3   1 <1>   0.3430 
 10 H1     -24.5150   -40.9060   -22.2930 H     1 <1>   0.0800 
 11 H2     -23.7920   -41.4740   -23.7220 H     1 <1>   0.0800 
 12 C      -23.8750   -42.9300   -22.1730 C.3   1 <1>  -0.2400 
 13 H1     -24.8360   -43.3050   -22.5230 H     1 <1>   0.0800 
 14 H2     -23.8620   -42.9900   -21.0840 H     1 <1>   0.0800 
 15 H3     -23.0940   -43.5770   -22.5710 H     1 <1>   0.0800 
 16 C      -22.2100   -40.6210   -20.7810 C.3   1 <1>   0.3430 
 17 H1     -22.1860   -41.5630   -20.2510 H     1 <1>   0.0800 
 18 H2     -21.2420   -40.1830   -20.5770 H     1 <1>   0.0800 
 19 C      -23.2680   -39.7230   -20.1310 C.3   1 <1>  -0.2400 
 20 H1     -23.0060   -39.5210   -19.0950 H     1 <1>   0.0800 
 21 H2     -24.2490   -40.1980   -20.1510 H     1 <1>   0.0800 
 22 H3     -23.3300   -38.7720   -20.6610 H     1 <1>   0.0800 
 23 C      -18.7210   -41.2010   -23.2020 C.ar  1 <1>  -0.1500 
 24 H      -18.6680   -42.2570   -23.1240 H     1 <1>   0.1500 
 25 C      -17.5530   -40.4770   -23.4450 C.ar  1 <1>  -0.1440 
 26 C      -16.2180   -41.1730   -23.5800 C.3   1 <1>   0.4870 
 27 H1     -15.6960   -40.6670   -24.3770 H     1 <1>   0.0800 
 28 H2     -16.3920   -42.1610   -23.9850 H     1 <1>   0.0800 
 29 N      -15.3450   -41.2420   -22.3480 N.4   1 <1>  -0.9590 
 30 H      -15.5810   -42.0930   -21.8540 H     1 <1>   0.4500 
 31 C      -15.4950   -40.0910   -21.3940 C.3   1 <1>   0.3430 
 32 H1     -16.4230   -39.5460   -21.4870 H     1 <1>   0.0800 
 33 H2     -15.4970   -40.4450   -20.3730 H     1 <1>   0.0800 
 34 C      -14.3020   -39.1570   -21.5730 C.3   1 <1>  -0.1600 
 35 H1     -14.5480   -38.4140   -22.3320 H     1 <1>   0.0800 
 36 H2     -14.0250   -38.6650   -20.6410 H     1 <1>   0.0800 
 37 C      -13.1860   -40.0600   -22.0920 C.3   1 <1>  -0.1600 
 38 H1     -12.5670   -40.3910   -21.2590 H     1 <1>   0.0800 
 39 H2     -12.5760   -39.5380   -22.8270 H     1 <1>   0.0800 
 40 C      -13.8840   -41.2810   -22.7020 C.3   1 <1>   0.3430 
 41 H1     -13.3920   -42.1840   -22.3660 H     1 <1>   0.0800 
 42 H2     -13.7270   -41.2750   -23.7730 H     1 <1>   0.0800 
 43 C      -17.6340   -39.0920   -23.5740 C.ar  1 <1>  -0.1500 
 44 H      -16.7590   -38.5290   -23.7700 H     1 <1>   0.1500 
 45 C      -18.8450   -38.4400   -23.4460 C.ar  1 <1>  -0.1500 
 46 H      -18.8950   -37.3870   -23.5470 H     1 <1>   0.1500 
@<TRIPOS>BOND
  1   1   2  1   
  2   1   3  ar  
  3   1  45  ar  
  4   3   4  1   
  5   3  23  ar  
  6   4   5  1   
  7   4   6  1   
  8   4   7  1   
  9   7   8  1   
 10   7   9  1   
 11   7  16  1   
 12   9  10  1   
 13   9  11  1   
 14   9  12  1   
 15  12  13  1   
 16  12  14  1   
 17  12  15  1   
 18  16  17  1   
 19  16  18  1   
 20  16  19  1   
 21  19  20  1   
 22  19  21  1   
 23  19  22  1   
 24  23  24  1   
 25  23  25  ar  
 26  25  26  1   
 27  25  43  ar  
 28  26  27  1   
 29  26  28  1   
 30  26  29  1   
 31  29  30  1   
 32  29  31  1   
 33  29  40  1   
 34  31  32  1   
 35  31  33  1   
 36  31  34  1   
 37  34  35  1   
 38  34  36  1   
 39  34  37  1   
 40  37  38  1   
 41  37  39  1   
 42  37  40  1   
 43  40  41  1   
 44  40  42  1   
 45  43  44  1   
 46  43  45  ar  
 47  45  46  1   
@<TRIPOS>SUBSTRUCTURE
  1 ****  23 GROUP 4 **** **** 0
@<TRIPOS>PROPERTY_DATA
rseq	|	1
mseq	|	6
S	|	-6.63349723815918
rmsd_refine	|	1.90539538860321
E_conf	|	-130.624618530273
E_place	|	-46.4991722106934
E_score1	|	-9.91459846496582
E_refine	|	-34.1474380493164
E_score2	|	-6.63349723815918
Field_1	|	5
Field_2	|	cc-2-26
E_orig	|	2.60506582260132
PLIF_pronum	|	1
PLIF_raw	|	[2,6787,438,7,0.9567816767]
FP:PLIF	|	4
PLIF_ligidx	|	2

# MOE 2020.09 (io_trps.svl 2020.11)

@<TRIPOS>MOLECULE
2XQJ
46 47 1 0 0 
SMALL
USER_CHARGES


@<TRIPOS>ATOM
  1 C      -20.7410   -39.7190   -22.7870 C.ar  1 <1>  -0.1710 
  2 O      -19.7120   -39.7780   -23.5570 O.3   1 <1>  -0.8290 
  3 C      -21.9610   -39.0990   -23.1720 C.ar  1 <1>  -0.1440 
  4 C      -22.2360   -38.5830   -24.5680 C.3   1 <1>   0.4870 
  5 H1     -22.9130   -37.7430   -24.4910 H     1 <1>   0.0800 
  6 H2     -22.8350   -39.3380   -25.0590 H     1 <1>   0.0800 
  7 N      -21.0540   -38.2380   -25.3970 N.4   1 <1>  -0.9590 
  8 H      -20.3330   -38.8630   -25.0470 H     1 <1>   0.4500 
  9 C      -21.2420   -38.5780   -26.8480 C.3   1 <1>   0.3430 
 10 H1     -22.1380   -38.1180   -27.2430 H     1 <1>   0.0800 
 11 H2     -20.4500   -38.1520   -27.4460 H     1 <1>   0.0800 
 12 C      -21.2900   -40.0760   -27.1600 C.3   1 <1>  -0.2400 
 13 H1     -21.3790   -40.2330   -28.2350 H     1 <1>   0.0800 
 14 H2     -22.1340   -40.5590   -26.6730 H     1 <1>   0.0800 
 15 H3     -20.3810   -40.5610   -26.8060 H     1 <1>   0.0800 
 16 C      -20.5580   -36.8520   -25.1210 C.3   1 <1>   0.3430 
 17 H1     -20.5040   -36.6650   -24.0560 H     1 <1>   0.0800 
 18 H2     -19.5350   -36.7460   -25.4440 H     1 <1>   0.0800 
 19 C      -21.3700   -35.7250   -25.7580 C.3   1 <1>  -0.2400 
 20 H1     -20.8630   -34.7720   -25.6300 H     1 <1>   0.0800 
 21 H2     -22.3600   -35.6610   -25.3090 H     1 <1>   0.0800 
 22 H3     -21.4710   -35.9020   -26.8260 H     1 <1>   0.0800 
 23 C      -23.0090   -39.0230   -22.2750 C.ar  1 <1>  -0.1500 
 24 H      -23.9020   -38.5390   -22.5650 H     1 <1>   0.1500 
 25 C      -22.9370   -39.6070   -21.0160 C.ar  1 <1>  -0.1440 
 26 C      -24.1730   -39.5980   -20.1510 C.3   1 <1>   0.4870 
 27 H1     -24.6970   -38.6760   -20.3660 H     1 <1>   0.0800 
 28 H2     -23.8660   -39.4780   -19.1210 H     1 <1>   0.0800 
 29 N      -25.1010   -40.7850   -20.3190 N.4   1 <1>  -0.9590 
 30 H      -26.0450   -40.4570   -20.1790 H     1 <1>   0.4500 
 31 C      -24.8400   -41.8510   -19.3300 C.3   1 <1>   0.3430 
 32 H1     -24.3550   -41.4860   -18.4440 H     1 <1>   0.0800 
 33 H2     -25.7600   -42.2550   -18.9420 H     1 <1>   0.0800 
 34 C      -24.0670   -42.9870   -20.0020 C.3   1 <1>  -0.1600 
 35 H1     -23.0230   -42.9960   -19.6910 H     1 <1>   0.0800 
 36 H2     -24.5450   -43.9290   -19.7520 H     1 <1>   0.0800 
 37 C      -24.1550   -42.7280   -21.5050 C.3   1 <1>  -0.1600 
 38 H1     -24.6230   -43.5580   -22.0320 H     1 <1>   0.0800 
 39 H2     -23.1590   -42.5410   -21.9100 H     1 <1>   0.0800 
 40 C      -25.0090   -41.4740   -21.6440 C.3   1 <1>   0.3430 
 41 H1     -25.9880   -41.7760   -21.9900 H     1 <1>   0.0800 
 42 H2     -24.6150   -40.8520   -22.4350 H     1 <1>   0.0800 
 43 C      -21.7590   -40.2470   -20.6360 C.ar  1 <1>  -0.1500 
 44 H      -21.6830   -40.7040   -19.6860 H     1 <1>   0.1500 
 45 C      -20.6800   -40.2960   -21.5010 C.ar  1 <1>  -0.1500 
 46 H      -19.7910   -40.7840   -21.2060 H     1 <1>   0.1500 
@<TRIPOS>BOND
  1   1   2  1   
  2   1   3  ar  
  3   1  45  ar  
  4   3   4  1   
  5   3  23  ar  
  6   4   5  1   
  7   4   6  1   
  8   4   7  1   
  9   7   8  1   
 10   7   9  1   
 11   7  16  1   
 12   9  10  1   
 13   9  11  1   
 14   9  12  1   
 15  12  13  1   
 16  12  14  1   
 17  12  15  1   
 18  16  17  1   
 19  16  18  1   
 20  16  19  1   
 21  19  20  1   
 22  19  21  1   
 23  19  22  1   
 24  23  24  1   
 25  23  25  ar  
 26  25  26  1   
 27  25  43  ar  
 28  26  27  1   
 29  26  28  1   
 30  26  29  1   
 31  29  30  1   
 32  29  31  1   
 33  29  40  1   
 34  31  32  1   
 35  31  33  1   
 36  31  34  1   
 37  34  35  1   
 38  34  36  1   
 39  34  37  1   
 40  37  38  1   
 41  37  39  1   
 42  37  40  1   
 43  40  41  1   
 44  40  42  1   
 45  43  44  1   
 46  43  45  ar  
 47  45  46  1   
@<TRIPOS>SUBSTRUCTURE
  1 ****   3 GROUP 4 **** **** 0
@<TRIPOS>PROPERTY_DATA
rseq	|	1
mseq	|	6
S	|	-6.59197425842285
rmsd_refine	|	1.44855761528015
E_conf	|	-129.792633056641
E_place	|	-46.1431465148926
E_score1	|	-9.63591003417969
E_refine	|	-26.9087219238281
E_score2	|	-6.59197425842285
Field_1	|	5
Field_2	|	cc-2-26
E_orig	|	0.400321841239929
PLIF_pronum	|	1
PLIF_raw	|	[9,1782,115,3,0.6]
FP:PLIF	|	5
PLIF_ligidx	|	9

# MOE 2020.09 (io_trps.svl 2020.11)

@<TRIPOS>MOLECULE
2XQJ
46 47 1 0 0 
SMALL
USER_CHARGES


@<TRIPOS>ATOM
  1 C      -21.5740   -38.8870   -26.7270 C.ar  1 <1>  -0.1710 
  2 O      -21.3780   -38.8880   -27.9950 O.3   1 <1>  -0.8290 
  3 C      -21.4090   -40.0600   -25.9580 C.ar  1 <1>  -0.1440 
  4 C      -21.0060   -41.3350   -26.6620 C.3   1 <1>   0.4870 
  5 H1     -20.0890   -41.7000   -26.2200 H     1 <1>   0.0800 
  6 H2     -20.7090   -41.0470   -27.6590 H     1 <1>   0.0800 
  7 N      -22.0520   -42.4130   -26.7370 N.4   1 <1>  -0.9590 
  8 H      -22.9290   -41.9270   -26.8690 H     1 <1>   0.4500 
  9 C      -21.8700   -43.2810   -27.9440 C.3   1 <1>   0.3430 
 10 H1     -20.8380   -43.5920   -28.0400 H     1 <1>   0.0800 
 11 H2     -22.4120   -44.2100   -27.8360 H     1 <1>   0.0800 
 12 C      -22.3120   -42.6590   -29.2650 C.3   1 <1>  -0.2400 
 13 H1     -22.0360   -43.3000   -30.1020 H     1 <1>   0.0800 
 14 H2     -21.8700   -41.6740   -29.4090 H     1 <1>   0.0800 
 15 H3     -23.3900   -42.5460   -29.2590 H     1 <1>   0.0800 
 16 C      -22.1640   -43.2120   -25.4760 C.3   1 <1>   0.3430 
 17 H1     -21.8510   -44.2360   -25.6320 H     1 <1>   0.0800 
 18 H2     -21.4700   -42.8540   -24.7290 H     1 <1>   0.0800 
 19 C      -23.5580   -43.2260   -24.8550 C.3   1 <1>  -0.2400 
 20 H1     -23.5480   -43.7770   -23.9150 H     1 <1>   0.0800 
 21 H2     -24.2740   -43.6960   -25.5300 H     1 <1>   0.0800 
 22 H3     -23.8850   -42.2100   -24.6550 H     1 <1>   0.0800 
 23 C      -21.6180   -40.0340   -24.5880 C.ar  1 <1>  -0.1500 
 24 H      -21.4670   -40.9150   -24.0230 H     1 <1>   0.1500 
 25 C      -22.0280   -38.8670   -23.9420 C.ar  1 <1>  -0.1440 
 26 C      -22.3200   -38.8660   -22.4610 C.3   1 <1>   0.4870 
 27 H1     -22.3350   -37.8330   -22.1380 H     1 <1>   0.0800 
 28 H2     -21.4680   -39.2880   -21.9460 H     1 <1>   0.0800 
 29 N      -23.5930   -39.5610   -22.0730 N.4   1 <1>  -0.9590 
 30 H      -24.2960   -39.2740   -22.7430 H     1 <1>   0.4500 
 31 C      -24.0940   -39.2100   -20.7110 C.3   1 <1>   0.3430 
 32 H1     -23.2970   -38.8240   -20.0890 H     1 <1>   0.0800 
 33 H2     -24.8460   -38.4310   -20.7160 H     1 <1>   0.0800 
 34 C      -24.6350   -40.4810   -20.0550 C.3   1 <1>  -0.1600 
 35 H1     -24.4780   -40.4790   -18.9770 H     1 <1>   0.0800 
 36 H2     -25.6970   -40.5730   -20.2840 H     1 <1>   0.0800 
 37 C      -23.8880   -41.6180   -20.7430 C.3   1 <1>  -0.1600 
 38 H1     -24.4940   -42.5220   -20.8150 H     1 <1>   0.0800 
 39 H2     -22.9620   -41.8270   -20.2090 H     1 <1>   0.0800 
 40 C      -23.5340   -41.0600   -22.1190 C.3   1 <1>   0.3430 
 41 H1     -24.2440   -41.4500   -22.8340 H     1 <1>   0.0800 
 42 H2     -22.5740   -41.4490   -22.4310 H     1 <1>   0.0800 
 43 C      -22.1890   -37.7030   -24.6930 C.ar  1 <1>  -0.1500 
 44 H      -22.4930   -36.8040   -24.2200 H     1 <1>   0.1500 
 45 C      -21.9610   -37.7070   -26.0580 C.ar  1 <1>  -0.1500 
 46 H      -22.0850   -36.8170   -26.6200 H     1 <1>   0.1500 
@<TRIPOS>BOND
  1   1   2  1   
  2   1   3  ar  
  3   1  45  ar  
  4   3   4  1   
  5   3  23  ar  
  6   4   5  1   
  7   4   6  1   
  8   4   7  1   
  9   7   8  1   
 10   7   9  1   
 11   7  16  1   
 12   9  10  1   
 13   9  11  1   
 14   9  12  1   
 15  12  13  1   
 16  12  14  1   
 17  12  15  1   
 18  16  17  1   
 19  16  18  1   
 20  16  19  1   
 21  19  20  1   
 22  19  21  1   
 23  19  22  1   
 24  23  24  1   
 25  23  25  ar  
 26  25  26  1   
 27  25  43  ar  
 28  26  27  1   
 29  26  28  1   
 30  26  29  1   
 31  29  30  1   
 32  29  31  1   
 33  29  40  1   
 34  31  32  1   
 35  31  33  1   
 36  31  34  1   
 37  34  35  1   
 38  34  36  1   
 39  34  37  1   
 40  37  38  1   
 41  37  39  1   
 42  37  40  1   
 43  40  41  1   
 44  40  42  1   
 45  43  44  1   
 46  43  45  ar  
 47  45  46  1   
@<TRIPOS>SUBSTRUCTURE
  1 ****  23 GROUP 4 **** **** 0
@<TRIPOS>PROPERTY_DATA
rseq	|	1
mseq	|	6
S	|	-6.5024356842041
rmsd_refine	|	1.80554831027985
E_conf	|	-130.290283203125
E_place	|	-50.5305404663086
E_score1	|	-9.66652488708496
E_refine	|	-31.9238033294678
E_score2	|	-6.5024356842041
Field_1	|	5
Field_2	|	cc-2-26
E_orig	|	1.26568233966827
PLIF_pronum	|	1
PLIF_raw	|	[[4,1,45,43,25,23,3],[1842,1239,1239,1239,1239,1239,1239],[120,82,82,82,82,82,82],[1,10,10,10,10,10,10],[0.5,0.6,0.6,0.6,0.6,0.6,0.6]]
FP:PLIF	|	2 17
PLIF_ligidx	|	[[1,45,43,25,23,3],4]

# MOE 2020.09 (io_trps.svl 2020.11)

@<TRIPOS>MOLECULE
2XQJ
46 47 1 0 0 
SMALL
USER_CHARGES


@<TRIPOS>ATOM
  1 C      -20.0010   -40.2560   -24.8660 C.ar  1 <1>  -0.1710 
  2 O      -21.0490   -39.9460   -25.5260 O.3   1 <1>  -0.8290 
  3 C      -19.2150   -39.2840   -24.2000 C.ar  1 <1>  -0.1440 
  4 C      -19.5610   -37.8000   -24.2710 C.3   1 <1>   0.4870 
  5 H1     -19.4540   -37.5260   -25.3110 H     1 <1>   0.0800 
  6 H2     -18.7450   -37.2630   -23.8070 H     1 <1>   0.0800 
  7 N      -20.8840   -37.2680   -23.7440 N.4   1 <1>  -0.9590 
  8 H      -20.6550   -36.6140   -23.0100 H     1 <1>   0.4500 
  9 C      -21.5930   -36.4270   -24.7810 C.3   1 <1>   0.3430 
 10 H1     -22.4840   -35.9780   -24.3630 H     1 <1>   0.0800 
 11 H2     -20.9870   -35.5730   -25.0530 H     1 <1>   0.0800 
 12 C      -21.9960   -37.1370   -26.0780 C.3   1 <1>  -0.2400 
 13 H1     -22.5260   -36.4560   -26.7360 H     1 <1>   0.0800 
 14 H2     -22.6570   -37.9760   -25.8670 H     1 <1>   0.0800 
 15 H3     -21.1250   -37.5080   -26.6160 H     1 <1>   0.0800 
 16 C      -21.7820   -38.3010   -23.1090 C.3   1 <1>   0.3430 
 17 H1     -22.1850   -38.9770   -23.8490 H     1 <1>   0.0800 
 18 H2     -21.2180   -38.9480   -22.4520 H     1 <1>   0.0800 
 19 C      -22.9610   -37.7360   -22.3130 C.3   1 <1>  -0.2400 
 20 H1     -23.5260   -38.5440   -21.8490 H     1 <1>   0.0800 
 21 H2     -23.6280   -37.1850   -22.9700 H     1 <1>   0.0800 
 22 H3     -22.6170   -37.0560   -21.5370 H     1 <1>   0.0800 
 23 C      -18.0430   -39.6690   -23.5630 C.ar  1 <1>  -0.1500 
 24 H      -17.4600   -38.9250   -23.0940 H     1 <1>   0.1500 
 25 C      -17.6130   -41.0030   -23.5620 C.ar  1 <1>  -0.1440 
 26 C      -16.3030   -41.4590   -22.9480 C.3   1 <1>   0.4870 
 27 H1     -15.9410   -42.2710   -23.5650 H     1 <1>   0.0800 
 28 H2     -16.4990   -41.9450   -22.0050 H     1 <1>   0.0800 
 29 N      -15.2480   -40.4090   -22.8170 N.4   1 <1>  -0.9590 
 30 H      -15.3240   -39.8090   -23.6250 H     1 <1>   0.4500 
 31 C      -13.8530   -40.9290   -22.7980 C.3   1 <1>   0.3430 
 32 H1     -13.7930   -41.8990   -22.3230 H     1 <1>   0.0800 
 33 H2     -13.4380   -41.0780   -23.7860 H     1 <1>   0.0800 
 34 C      -12.9970   -39.9460   -21.9960 C.3   1 <1>  -0.1600 
 35 H1     -12.4500   -40.4840   -21.2250 H     1 <1>   0.0800 
 36 H2     -12.3090   -39.4270   -22.6580 H     1 <1>   0.0800 
 37 C      -13.9710   -38.9410   -21.3730 C.3   1 <1>  -0.1600 
 38 H1     -13.9090   -37.9960   -21.9140 H     1 <1>   0.0800 
 39 H2     -13.7690   -38.7740   -20.3170 H     1 <1>   0.0800 
 40 C      -15.3500   -39.5450   -21.6050 C.3   1 <1>   0.3430 
 41 H1     -16.0990   -38.7680   -21.6680 H     1 <1>   0.0800 
 42 H2     -15.6170   -40.1270   -20.7330 H     1 <1>   0.0800 
 43 C      -18.4110   -41.9610   -24.1820 C.ar  1 <1>  -0.1500 
 44 H      -18.1160   -42.9790   -24.1810 H     1 <1>   0.1500 
 45 C      -19.5830   -41.6010   -24.8170 C.ar  1 <1>  -0.1500 
 46 H      -20.1770   -42.3390   -25.2930 H     1 <1>   0.1500 
@<TRIPOS>BOND
  1   1   2  1   
  2   1   3  ar  
  3   1  45  ar  
  4   3   4  1   
  5   3  23  ar  
  6   4   5  1   
  7   4   6  1   
  8   4   7  1   
  9   7   8  1   
 10   7   9  1   
 11   7  16  1   
 12   9  10  1   
 13   9  11  1   
 14   9  12  1   
 15  12  13  1   
 16  12  14  1   
 17  12  15  1   
 18  16  17  1   
 19  16  18  1   
 20  16  19  1   
 21  19  20  1   
 22  19  21  1   
 23  19  22  1   
 24  23  24  1   
 25  23  25  ar  
 26  25  26  1   
 27  25  43  ar  
 28  26  27  1   
 29  26  28  1   
 30  26  29  1   
 31  29  30  1   
 32  29  31  1   
 33  29  40  1   
 34  31  32  1   
 35  31  33  1   
 36  31  34  1   
 37  34  35  1   
 38  34  36  1   
 39  34  37  1   
 40  37  38  1   
 41  37  39  1   
 42  37  40  1   
 43  40  41  1   
 44  40  42  1   
 45  43  44  1   
 46  43  45  ar  
 47  45  46  1   
@<TRIPOS>SUBSTRUCTURE
  1 ****  23 GROUP 4 **** **** 0
@<TRIPOS>PROPERTY_DATA
rseq	|	1
mseq	|	6
S	|	-6.4739294052124
rmsd_refine	|	1.1006486415863
E_conf	|	-121.453025817871
E_place	|	-54.8472480773926
E_score1	|	-9.58692646026611
E_refine	|	-29.3568649291992
E_score2	|	-6.4739294052124
Field_1	|	5
Field_2	|	cc-2-26
E_orig	|	3.6974778175354
PLIF_pronum	|	1
PLIF_raw	|	[[7,19,19,19,19,19,19],[3013,1245,1249,1253,1255,1251,1248],[197,82,82,82,82,82,82],[7,10,10,10,10,10,10],[1.296875212,0.7,0.7,0.7,0.7,0.7,0.7]]
FP:PLIF	|	2 8
PLIF_ligidx	|	[[19,19,19,19,19,19],7]

# MOE 2020.09 (io_trps.svl 2020.11)

@<TRIPOS>MOLECULE
2XQJ
49 50 1 0 0 
SMALL
USER_CHARGES


@<TRIPOS>ATOM
  1 C      -20.7270   -38.8260   -23.6800 C.ar  1 <1>  -0.1710 
  2 O      -21.8660   -38.2430   -23.7600 O.3   1 <1>  -0.8290 
  3 C      -20.6280   -40.2190   -23.4590 C.ar  1 <1>  -0.1440 
  4 C      -21.8860   -41.0550   -23.3670 C.3   1 <1>   0.4860 
  5 H1     -21.6570   -42.0260   -23.7860 H     1 <1>   0.0800 
  6 H2     -22.6140   -40.6480   -24.0580 H     1 <1>   0.0800 
  7 N      -22.4650   -41.1910   -21.9860 N.4   1 <1>  -0.9590 
  8 H      -21.6740   -41.1710   -21.3610 H     1 <1>   0.4500 
  9 C      -23.3150   -39.9980   -21.6340 C.3   1 <1>   0.3430 
 10 H1     -22.7820   -39.0780   -21.8350 H     1 <1>   0.0800 
 11 H2     -24.1750   -39.9350   -22.2870 H     1 <1>   0.0800 
 12 C      -23.8070   -39.9260   -20.1870 C.3   1 <1>  -0.2400 
 13 H1     -24.4090   -40.7960   -19.9280 H     1 <1>   0.0800 
 14 H2     -22.9620   -39.8560   -19.5020 H     1 <1>   0.0800 
 15 H3     -24.4240   -39.0390   -20.0630 H     1 <1>   0.0800 
 16 C      -23.1540   -42.5200   -21.7800 C.3   1 <1>   0.3430 
 17 H1     -22.4960   -43.3350   -22.0530 H     1 <1>   0.0800 
 18 H2     -23.3470   -42.6920   -20.7300 H     1 <1>   0.0800 
 19 C      -24.4750   -42.7190   -22.5310 C.3   1 <1>  -0.2400 
 20 H1     -25.2230   -42.0110   -22.1770 H     1 <1>   0.0800 
 21 H2     -24.3360   -42.5900   -23.6050 H     1 <1>   0.0800 
 22 H3     -24.8630   -43.7200   -22.3580 H     1 <1>   0.0800 
 23 C      -19.3840   -40.8200   -23.3400 C.ar  1 <1>  -0.1500 
 24 H      -19.3270   -41.8640   -23.1630 H     1 <1>   0.1500 
 25 C      -18.2060   -40.0810   -23.4660 C.ar  1 <1>  -0.1440 
 26 C      -16.8780   -40.8000   -23.3440 C.3   1 <1>   0.4870 
 27 H1     -16.7420   -41.3670   -24.2560 H     1 <1>   0.0800 
 28 H2     -16.9920   -41.5640   -22.5880 H     1 <1>   0.0800 
 29 N      -15.6620   -39.9510   -23.0640 N.4   1 <1>  -0.9590 
 30 H      -15.6160   -39.2630   -23.7990 H     1 <1>   0.4500 
 31 C      -14.3240   -40.6630   -23.0660 C.3   1 <1>   0.4230 
 32 C      -14.3760   -42.1940   -23.1090 C.3   1 <1>  -0.2400 
 33 H1     -13.3780   -42.5960   -22.9610 H     1 <1>   0.0800 
 34 H2     -14.7390   -42.5420   -24.0760 H     1 <1>   0.0800 
 35 H3     -15.0280   -42.5880   -22.3300 H     1 <1>   0.0800 
 36 C      -13.5120   -40.1240   -21.8780 C.3   1 <1>  -0.1600 
 37 H1     -13.5070   -40.8650   -21.0830 H     1 <1>   0.0800 
 38 H2     -12.4890   -39.8820   -22.1670 H     1 <1>   0.0800 
 39 C      -14.2650   -38.8900   -21.3950 C.3   1 <1>  -0.1600 
 40 H1     -13.9270   -38.0170   -21.9550 H     1 <1>   0.0800 
 41 H2     -14.1340   -38.7180   -20.3290 H     1 <1>   0.0800 
 42 C      -15.7070   -39.1900   -21.7800 C.3   1 <1>   0.3430 
 43 H1     -16.3010   -38.2900   -21.8210 H     1 <1>   0.0800 
 44 H2     -16.1500   -39.7840   -20.9910 H     1 <1>   0.0800 
 45 C      -18.3000   -38.7110   -23.7270 C.ar  1 <1>  -0.1500 
 46 H      -17.4260   -38.1310   -23.8570 H     1 <1>   0.1500 
 47 C      -19.5330   -38.0910   -23.8230 C.ar  1 <1>  -0.1500 
 48 H      -19.5920   -37.0500   -24.0110 H     1 <1>   0.1500 
 49 H      -13.7610   -40.3750   -23.9390 H     1 <1>   0.0800 
@<TRIPOS>BOND
  1   1   2  1   
  2   1   3  ar  
  3   1  47  ar  
  4   3   4  1   
  5   3  23  ar  
  6   4   5  1   
  7   4   6  1   
  8   4   7  1   
  9   7   8  1   
 10   7   9  1   
 11   7  16  1   
 12   9  10  1   
 13   9  11  1   
 14   9  12  1   
 15  12  13  1   
 16  12  14  1   
 17  12  15  1   
 18  16  17  1   
 19  16  18  1   
 20  16  19  1   
 21  19  20  1   
 22  19  21  1   
 23  19  22  1   
 24  23  24  1   
 25  23  25  ar  
 26  25  26  1   
 27  25  45  ar  
 28  26  27  1   
 29  26  28  1   
 30  26  29  1   
 31  29  30  1   
 32  29  31  1   
 33  29  42  1   
 34  31  32  1   
 35  31  36  1   
 36  31  49  1   
 37  32  33  1   
 38  32  34  1   
 39  32  35  1   
 40  36  37  1   
 41  36  38  1   
 42  36  39  1   
 43  39  40  1   
 44  39  41  1   
 45  39  42  1   
 46  42  43  1   
 47  42  44  1   
 48  45  46  1   
 49  45  47  ar  
 50  47  48  1   
@<TRIPOS>SUBSTRUCTURE
  1 ****  23 GROUP 4 **** **** 0
@<TRIPOS>PROPERTY_DATA
rseq	|	1
mseq	|	7
S	|	-6.83206844329834
rmsd_refine	|	1.67348337173462
E_conf	|	-158.017944335938
E_place	|	-45.970085144043
E_score1	|	-9.5096607208252
E_refine	|	-35.082160949707
E_score2	|	-6.83206844329834
Field_1	|	6
Field_2	|	cc-2-47
E_orig	|	2.25976610183716
PLIF_pronum	|	1
PLIF_raw	|	[[9,9,9,9,9],[1242,1245,1248,1246,1243],[82,82,82,82,82],[10,10,10,10,10],[0.7,0.7,0.7,0.7,0.7]]
FP:PLIF	|	2
PLIF_ligidx	|	[[9,9,9,9,9]]

# MOE 2020.09 (io_trps.svl 2020.11)

@<TRIPOS>MOLECULE
2XQJ
49 50 1 0 0 
SMALL
USER_CHARGES


@<TRIPOS>ATOM
  1 C      -20.7430   -39.3810   -22.8140 C.ar  1 <1>  -0.1710 
  2 O      -21.8770   -38.8680   -22.5020 O.3   1 <1>  -0.8290 
  3 C      -19.7830   -38.6740   -23.5790 C.ar  1 <1>  -0.1440 
  4 C      -20.1400   -37.3330   -24.1740 C.3   1 <1>   0.4860 
  5 H1     -19.3540   -37.0220   -24.8470 H     1 <1>   0.0800 
  6 H2     -20.0960   -36.6080   -23.3720 H     1 <1>   0.0800 
  7 N      -21.4770   -37.3060   -24.8440 N.4   1 <1>  -0.9590 
  8 H      -22.0240   -37.9750   -24.3070 H     1 <1>   0.4500 
  9 C      -22.1720   -36.0090   -24.6510 C.3   1 <1>   0.3430 
 10 H1     -21.5300   -35.1750   -24.8990 H     1 <1>   0.0800 
 11 H2     -22.9980   -35.9120   -25.3400 H     1 <1>   0.0800 
 12 C      -22.7140   -35.8160   -23.2360 C.3   1 <1>  -0.2400 
 13 H1     -23.2710   -34.8880   -23.1750 H     1 <1>   0.0800 
 14 H2     -21.9070   -35.7840   -22.5050 H     1 <1>   0.0800 
 15 H3     -23.3820   -36.6350   -22.9710 H     1 <1>   0.0800 
 16 C      -21.4980   -37.8010   -26.2580 C.3   1 <1>   0.3430 
 17 H1     -22.4020   -37.4730   -26.7550 H     1 <1>   0.0800 
 18 H2     -20.7080   -37.3540   -26.8420 H     1 <1>   0.0800 
 19 C      -21.4250   -39.3220   -26.4210 C.3   1 <1>  -0.2400 
 20 H1     -21.5520   -39.5950   -27.4690 H     1 <1>   0.0800 
 21 H2     -22.2090   -39.8020   -25.8370 H     1 <1>   0.0800 
 22 H3     -20.4700   -39.7130   -26.0790 H     1 <1>   0.0800 
 23 C      -18.5290   -39.2180   -23.8050 C.ar  1 <1>  -0.1500 
 24 H      -17.8110   -38.6630   -24.3490 H     1 <1>   0.1500 
 25 C      -18.2040   -40.4870   -23.3270 C.ar  1 <1>  -0.1440 
 26 C      -16.8240   -41.0710   -23.5030 C.3   1 <1>   0.4870 
 27 H1     -16.7550   -41.4740   -24.5050 H     1 <1>   0.0800 
 28 H2     -16.7760   -41.9460   -22.8700 H     1 <1>   0.0800 
 29 N      -15.6730   -40.1310   -23.2110 N.4   1 <1>  -0.9590 
 30 H      -15.6380   -39.4750   -23.9740 H     1 <1>   0.4500 
 31 C      -14.2970   -40.7570   -23.1260 C.3   1 <1>   0.4230 
 32 C      -14.2470   -42.2850   -23.1730 C.3   1 <1>  -0.2400 
 33 H1     -14.9250   -42.7300   -22.4460 H     1 <1>   0.0800 
 34 H2     -13.2390   -42.6080   -22.9400 H     1 <1>   0.0800 
 35 H3     -14.5060   -42.6520   -24.1660 H     1 <1>   0.0800 
 36 C      -13.5940   -40.1760   -21.8910 C.3   1 <1>  -0.1600 
 37 H1     -13.6360   -40.9030   -21.0830 H     1 <1>   0.0800 
 38 H2     -12.5570   -39.9140   -22.1020 H     1 <1>   0.0800 
 39 C      -14.4160   -38.9570   -21.4950 C.3   1 <1>  -0.1600 
 40 H1     -14.0660   -38.0870   -22.0540 H     1 <1>   0.0800 
 41 H2     -14.3600   -38.7590   -20.4280 H     1 <1>   0.0800 
 42 C      -15.8200   -39.3160   -21.9640 C.3   1 <1>   0.3430 
 43 H1     -16.4320   -38.4340   -22.0870 H     1 <1>   0.0800 
 44 H2     -16.3030   -39.8860   -21.1810 H     1 <1>   0.0800 
 45 C      -19.1790   -41.2280   -22.6620 C.ar  1 <1>  -0.1500 
 46 H      -18.9690   -42.2160   -22.3410 H     1 <1>   0.1500 
 47 C      -20.4220   -40.6860   -22.3980 C.ar  1 <1>  -0.1500 
 48 H      -21.1470   -41.2530   -21.8720 H     1 <1>   0.1500 
 49 H      -13.6990   -40.4290   -23.9620 H     1 <1>   0.0800 
@<TRIPOS>BOND
  1   1   2  1   
  2   1   3  ar  
  3   1  47  ar  
  4   3   4  1   
  5   3  23  ar  
  6   4   5  1   
  7   4   6  1   
  8   4   7  1   
  9   7   8  1   
 10   7   9  1   
 11   7  16  1   
 12   9  10  1   
 13   9  11  1   
 14   9  12  1   
 15  12  13  1   
 16  12  14  1   
 17  12  15  1   
 18  16  17  1   
 19  16  18  1   
 20  16  19  1   
 21  19  20  1   
 22  19  21  1   
 23  19  22  1   
 24  23  24  1   
 25  23  25  ar  
 26  25  26  1   
 27  25  45  ar  
 28  26  27  1   
 29  26  28  1   
 30  26  29  1   
 31  29  30  1   
 32  29  31  1   
 33  29  42  1   
 34  31  32  1   
 35  31  36  1   
 36  31  49  1   
 37  32  33  1   
 38  32  34  1   
 39  32  35  1   
 40  36  37  1   
 41  36  38  1   
 42  36  39  1   
 43  39  40  1   
 44  39  41  1   
 45  39  42  1   
 46  42  43  1   
 47  42  44  1   
 48  45  46  1   
 49  45  47  ar  
 50  47  48  1   
@<TRIPOS>SUBSTRUCTURE
  1 ****  23 GROUP 4 **** **** 0
@<TRIPOS>PROPERTY_DATA
rseq	|	1
mseq	|	7
S	|	-6.81199645996094
rmsd_refine	|	1.93381118774414
E_conf	|	-156.88542175293
E_place	|	-57.5253868103027
E_score1	|	-9.68562316894531
E_refine	|	-30.9288425445557
E_score2	|	-6.81199645996094
Field_1	|	6
Field_2	|	cc-2-47
E_orig	|	2.41634297370911
PLIF_pronum	|	1
PLIF_raw	|	[9,3013,197,1,0.6]
FP:PLIF	|	3
PLIF_ligidx	|	9

# MOE 2020.09 (io_trps.svl 2020.11)

@<TRIPOS>MOLECULE
2XQJ
49 50 1 0 0 
SMALL
USER_CHARGES


@<TRIPOS>ATOM
  1 C      -20.6770   -39.6590   -24.3580 C.ar  1 <1>  -0.1710 
  2 O      -21.8200   -39.6580   -24.9390 O.3   1 <1>  -0.8290 
  3 C      -20.2040   -40.7950   -23.6650 C.ar  1 <1>  -0.1440 
  4 C      -21.0650   -42.0370   -23.6020 C.3   1 <1>   0.4860 
  5 H1     -20.4320   -42.8770   -23.3520 H     1 <1>   0.0800 
  6 H2     -21.3960   -42.2560   -24.6090 H     1 <1>   0.0800 
  7 N      -22.2290   -41.9260   -22.6570 N.4   1 <1>  -0.9590 
  8 H      -22.1210   -41.0140   -22.2360 H     1 <1>   0.4500 
  9 C      -23.5400   -41.8620   -23.3890 C.3   1 <1>   0.3430 
 10 H1     -24.3270   -41.5250   -22.7300 H     1 <1>   0.0800 
 11 H2     -23.5090   -41.1000   -24.1570 H     1 <1>   0.0800 
 12 C      -24.0090   -43.1650   -24.0450 C.3   1 <1>  -0.2400 
 13 H1     -24.9370   -43.0040   -24.5880 H     1 <1>   0.0800 
 14 H2     -24.1950   -43.9250   -23.2890 H     1 <1>   0.0800 
 15 H3     -23.2670   -43.5370   -24.7510 H     1 <1>   0.0800 
 16 C      -22.2170   -42.9360   -21.5420 C.3   1 <1>   0.3430 
 17 H1     -23.1380   -42.8830   -20.9760 H     1 <1>   0.0800 
 18 H2     -22.2190   -43.9450   -21.9340 H     1 <1>   0.0800 
 19 C      -21.0610   -42.8140   -20.5440 C.3   1 <1>  -0.2400 
 20 H1     -21.1870   -43.5340   -19.7350 H     1 <1>   0.0800 
 21 H2     -21.0300   -41.8140   -20.1130 H     1 <1>   0.0800 
 22 H3     -20.1090   -43.0190   -21.0320 H     1 <1>   0.0800 
 23 C      -18.9760   -40.7630   -23.0230 C.ar  1 <1>  -0.1500 
 24 H      -18.6450   -41.6240   -22.5080 H     1 <1>   0.1500 
 25 C      -18.1810   -39.6150   -23.0400 C.ar  1 <1>  -0.1440 
 26 C      -16.8790   -39.5600   -22.2750 C.3   1 <1>   0.4870 
 27 H1     -16.8810   -40.3340   -21.5250 H     1 <1>   0.0800 
 28 H2     -16.9090   -38.6530   -21.6850 H     1 <1>   0.0800 
 29 N      -15.6230   -39.6130   -23.0950 N.4   1 <1>  -0.9590 
 30 H      -15.8660   -39.3500   -24.0390 H     1 <1>   0.4500 
 31 C      -14.9370   -40.9570   -23.1280 C.3   1 <1>   0.4230 
 32 C      -15.8010   -42.2240   -23.1490 C.3   1 <1>  -0.2400 
 33 H1     -15.1690   -43.1000   -23.3050 H     1 <1>   0.0800 
 34 H2     -16.5230   -42.1820   -23.9650 H     1 <1>   0.0800 
 35 H3     -16.3280   -42.3660   -22.2090 H     1 <1>   0.0800 
 36 C      -13.9030   -40.9390   -22.0090 C.3   1 <1>  -0.1600 
 37 H1     -14.3840   -41.2330   -21.0760 H     1 <1>   0.0800 
 38 H2     -13.0640   -41.5950   -22.2360 H     1 <1>   0.0800 
 39 C      -13.4640   -39.4830   -21.9080 C.3   1 <1>  -0.1600 
 40 H1     -12.5520   -39.3400   -22.4860 H     1 <1>   0.0800 
 41 H2     -13.3070   -39.1930   -20.8690 H     1 <1>   0.0800 
 42 C      -14.5910   -38.6690   -22.5480 C.3   1 <1>   0.3430 
 43 H1     -14.1700   -38.0290   -23.3120 H     1 <1>   0.0800 
 44 H2     -15.0010   -37.9880   -21.8130 H     1 <1>   0.0800 
 45 C      -18.6300   -38.5010   -23.7490 C.ar  1 <1>  -0.1500 
 46 H      -18.0380   -37.6270   -23.7940 H     1 <1>   0.1500 
 47 C      -19.8540   -38.5150   -24.3930 C.ar  1 <1>  -0.1500 
 48 H      -20.1880   -37.6590   -24.9210 H     1 <1>   0.1500 
 49 H      -14.3470   -41.0090   -24.0310 H     1 <1>   0.0800 
@<TRIPOS>BOND
  1   1   2  1   
  2   1   3  ar  
  3   1  47  ar  
  4   3   4  1   
  5   3  23  ar  
  6   4   5  1   
  7   4   6  1   
  8   4   7  1   
  9   7   8  1   
 10   7   9  1   
 11   7  16  1   
 12   9  10  1   
 13   9  11  1   
 14   9  12  1   
 15  12  13  1   
 16  12  14  1   
 17  12  15  1   
 18  16  17  1   
 19  16  18  1   
 20  16  19  1   
 21  19  20  1   
 22  19  21  1   
 23  19  22  1   
 24  23  24  1   
 25  23  25  ar  
 26  25  26  1   
 27  25  45  ar  
 28  26  27  1   
 29  26  28  1   
 30  26  29  1   
 31  29  30  1   
 32  29  31  1   
 33  29  42  1   
 34  31  32  1   
 35  31  36  1   
 36  31  49  1   
 37  32  33  1   
 38  32  34  1   
 39  32  35  1   
 40  36  37  1   
 41  36  38  1   
 42  36  39  1   
 43  39  40  1   
 44  39  41  1   
 45  39  42  1   
 46  42  43  1   
 47  42  44  1   
 48  45  46  1   
 49  45  47  ar  
 50  47  48  1   
@<TRIPOS>SUBSTRUCTURE
  1 ****  23 GROUP 4 **** **** 0
@<TRIPOS>PROPERTY_DATA
rseq	|	1
mseq	|	7
S	|	-6.65857410430908
rmsd_refine	|	2.03957414627075
E_conf	|	-157.129653930664
E_place	|	-51.2485084533691
E_score1	|	-9.86013221740723
E_refine	|	-32.7079315185547
E_score2	|	-6.65857410430908
Field_1	|	6
Field_2	|	cc-2-47
E_orig	|	0.800152063369751
PLIF_pronum	|	1
PLIF_raw	|	[[1,3,23,25,45,47],[6787,6787,6787,6787,6787,6787],[438,438,438,438,438,438],[10,10,10,10,10,10],[0.6,0.6,0.6,0.6,0.6,0.6]]
FP:PLIF	|	14
PLIF_ligidx	|	[[1,3,23,25,45,47]]

# MOE 2020.09 (io_trps.svl 2020.11)

@<TRIPOS>MOLECULE
2XQJ
49 50 1 0 0 
SMALL
USER_CHARGES


@<TRIPOS>ATOM
  1 C      -21.1830   -39.3500   -22.7110 C.ar  1 <1>  -0.1710 
  2 O      -22.3160   -38.9540   -22.2520 O.3   1 <1>  -0.8290 
  3 C      -20.9200   -40.7180   -22.9650 C.ar  1 <1>  -0.1440 
  4 C      -22.0330   -41.7370   -22.8230 C.3   1 <1>   0.4860 
  5 H1     -21.6360   -42.7150   -23.0570 H     1 <1>   0.0800 
  6 H2     -22.7350   -41.5500   -23.6250 H     1 <1>   0.0800 
  7 N      -22.7330   -41.7370   -21.4950 N.4   1 <1>  -0.9590 
  8 H      -22.3800   -40.9080   -21.0310 H     1 <1>   0.4500 
  9 C      -24.2040   -41.5040   -21.6480 C.3   1 <1>   0.3430 
 10 H1     -24.3810   -40.7540   -22.4090 H     1 <1>   0.0800 
 11 H2     -24.7030   -42.3850   -22.0300 H     1 <1>   0.0800 
 12 C      -24.9320   -41.0410   -20.3830 C.3   1 <1>  -0.2400 
 13 H1     -25.9810   -40.8500   -20.6090 H     1 <1>   0.0800 
 14 H2     -24.4880   -40.1180   -20.0090 H     1 <1>   0.0800 
 15 H3     -24.8830   -41.7990   -19.6020 H     1 <1>   0.0800 
 16 C      -22.3990   -42.9260   -20.6440 C.3   1 <1>   0.3430 
 17 H1     -23.0540   -42.9770   -19.7850 H     1 <1>   0.0800 
 18 H2     -22.6010   -43.8480   -21.1720 H     1 <1>   0.0800 
 19 C      -20.9610   -42.9760   -20.1210 C.3   1 <1>  -0.2400 
 20 H1     -20.8290   -43.8380   -19.4680 H     1 <1>   0.0800 
 21 H2     -20.7360   -42.0750   -19.5520 H     1 <1>   0.0800 
 22 H3     -20.2530   -43.0600   -20.9450 H     1 <1>   0.0800 
 23 C      -19.6570   -41.1190   -23.3790 C.ar  1 <1>  -0.1500 
 24 H      -19.4690   -42.1480   -23.5530 H     1 <1>   0.1500 
 25 C      -18.6350   -40.1910   -23.5860 C.ar  1 <1>  -0.1440 
 26 C      -17.2630   -40.6460   -24.0210 C.3   1 <1>   0.4870 
 27 H1     -16.6890   -39.7810   -24.3230 H     1 <1>   0.0800 
 28 H2     -17.3920   -41.1960   -24.9440 H     1 <1>   0.0800 
 29 N      -16.5250   -41.4720   -23.0040 N.4   1 <1>  -0.9590 
 30 H      -17.2280   -41.8790   -22.4030 H     1 <1>   0.4500 
 31 C      -15.5300   -40.7430   -22.1270 C.3   1 <1>   0.4230 
 32 C      -15.7560   -39.2440   -21.8810 C.3   1 <1>  -0.2400 
 33 H1     -16.7460   -39.0680   -21.4630 H     1 <1>   0.0800 
 34 H2     -15.6540   -38.6720   -22.8030 H     1 <1>   0.0800 
 35 H3     -15.0190   -38.8690   -21.1700 H     1 <1>   0.0800 
 36 C      -14.1320   -41.0450   -22.6750 C.3   1 <1>  -0.1600 
 37 H1     -13.8090   -40.2410   -23.3350 H     1 <1>   0.0800 
 38 H2     -13.4100   -41.1590   -21.8650 H     1 <1>   0.0800 
 39 C      -14.2720   -42.3340   -23.4840 C.3   1 <1>  -0.1600 
 40 H1     -13.8360   -43.1690   -22.9420 H     1 <1>   0.0800 
 41 H2     -13.7970   -42.2340   -24.4590 H     1 <1>   0.0800 
 42 C      -15.7680   -42.5920   -23.6380 C.3   1 <1>   0.3430 
 43 H1     -16.0020   -43.5440   -23.1790 H     1 <1>   0.0800 
 44 H2     -16.0090   -42.7250   -24.6850 H     1 <1>   0.0800 
 45 C      -18.9060   -38.8360   -23.3950 C.ar  1 <1>  -0.1500 
 46 H      -18.1520   -38.1150   -23.5740 H     1 <1>   0.1500 
 47 C      -20.1570   -38.4200   -22.9750 C.ar  1 <1>  -0.1500 
 48 H      -20.3580   -37.3870   -22.8480 H     1 <1>   0.1500 
 49 H      -15.5540   -41.2060   -21.1490 H     1 <1>   0.0800 
@<TRIPOS>BOND
  1   1   2  1   
  2   1   3  ar  
  3   1  47  ar  
  4   3   4  1   
  5   3  23  ar  
  6   4   5  1   
  7   4   6  1   
  8   4   7  1   
  9   7   8  1   
 10   7   9  1   
 11   7  16  1   
 12   9  10  1   
 13   9  11  1   
 14   9  12  1   
 15  12  13  1   
 16  12  14  1   
 17  12  15  1   
 18  16  17  1   
 19  16  18  1   
 20  16  19  1   
 21  19  20  1   
 22  19  21  1   
 23  19  22  1   
 24  23  24  1   
 25  23  25  ar  
 26  25  26  1   
 27  25  45  ar  
 28  26  27  1   
 29  26  28  1   
 30  26  29  1   
 31  29  30  1   
 32  29  31  1   
 33  29  42  1   
 34  31  32  1   
 35  31  36  1   
 36  31  49  1   
 37  32  33  1   
 38  32  34  1   
 39  32  35  1   
 40  36  37  1   
 41  36  38  1   
 42  36  39  1   
 43  39  40  1   
 44  39  41  1   
 45  39  42  1   
 46  42  43  1   
 47  42  44  1   
 48  45  46  1   
 49  45  47  ar  
 50  47  48  1   
@<TRIPOS>SUBSTRUCTURE
  1 ****  23 GROUP 4 **** **** 0
@<TRIPOS>PROPERTY_DATA
rseq	|	1
mseq	|	7
S	|	-6.65162038803101
rmsd_refine	|	2.69230556488037
E_conf	|	-156.597930908203
E_place	|	-54.1963996887207
E_score1	|	-10.3034763336182
E_refine	|	-33.1067276000977
E_score2	|	-6.65162038803101
Field_1	|	6
Field_2	|	cc-2-47
E_orig	|	2.18481993675232
PLIF_pronum	|	1
PLIF_raw	|	[[],[],[],[],[]]
FP:PLIF	|	
PLIF_ligidx	|	[]

# MOE 2020.09 (io_trps.svl 2020.11)

@<TRIPOS>MOLECULE
2XQJ
49 50 1 0 0 
SMALL
USER_CHARGES


@<TRIPOS>ATOM
  1 C      -17.3750   -41.5860   -24.7500 C.ar  1 <1>  -0.1710 
  2 O      -16.3040   -42.1460   -25.1820 O.3   1 <1>  -0.8290 
  3 C      -17.4050   -40.9350   -23.5000 C.ar  1 <1>  -0.1440 
  4 C      -16.1600   -40.9850   -22.6540 C.3   1 <1>   0.4860 
  5 H1     -15.7990   -42.0050   -22.6730 H     1 <1>   0.0800 
  6 H2     -16.4160   -40.8100   -21.6200 H     1 <1>   0.0800 
  7 N      -15.1190   -40.0350   -23.1180 N.4   1 <1>  -0.9590 
  8 H      -15.2920   -39.9570   -24.1130 H     1 <1>   0.4500 
  9 C      -15.2820   -38.6890   -22.4950 C.3   1 <1>   0.3430 
 10 H1     -16.3060   -38.3520   -22.5770 H     1 <1>   0.0800 
 11 H2     -15.1230   -38.7490   -21.4260 H     1 <1>   0.0800 
 12 C      -14.3660   -37.5910   -23.0380 C.3   1 <1>  -0.2400 
 13 H1     -13.3570   -37.9580   -23.2110 H     1 <1>   0.0800 
 14 H2     -14.7710   -37.2150   -23.9720 H     1 <1>   0.0800 
 15 H3     -14.2950   -36.7720   -22.3260 H     1 <1>   0.0800 
 16 C      -13.7410   -40.5930   -22.9800 C.3   1 <1>   0.3430 
 17 H1     -13.7020   -41.6260   -23.3020 H     1 <1>   0.0800 
 18 H2     -13.0530   -40.0890   -23.6440 H     1 <1>   0.0800 
 19 C      -13.1710   -40.5000   -21.5740 C.3   1 <1>  -0.2400 
 20 H1     -13.1000   -39.4740   -21.2190 H     1 <1>   0.0800 
 21 H2     -12.1700   -40.9080   -21.5550 H     1 <1>   0.0800 
 22 H3     -13.8190   -41.0600   -20.9090 H     1 <1>   0.0800 
 23 C      -18.5310   -40.2350   -23.0940 C.ar  1 <1>  -0.1500 
 24 H      -18.5250   -39.7280   -22.1650 H     1 <1>   0.1500 
 25 C      -19.6670   -40.1840   -23.9040 C.ar  1 <1>  -0.1440 
 26 C      -20.8740   -39.3680   -23.5090 C.3   1 <1>   0.4870 
 27 H1     -21.3490   -39.8600   -22.6710 H     1 <1>   0.0800 
 28 H2     -21.6020   -39.4560   -24.3050 H     1 <1>   0.0800 
 29 N      -20.5910   -37.9140   -23.2020 N.4   1 <1>  -0.9590 
 30 H      -20.0560   -37.8860   -22.3500 H     1 <1>   0.4500 
 31 C      -21.8230   -37.0720   -23.0360 C.3   1 <1>   0.4230 
 32 C      -23.0450   -37.7590   -22.4060 C.3   1 <1>  -0.2400 
 33 H1     -23.8360   -37.0310   -22.2550 H     1 <1>   0.0800 
 34 H2     -22.8050   -38.1930   -21.4380 H     1 <1>   0.0800 
 35 H3     -23.4330   -38.5480   -23.0500 H     1 <1>   0.0800 
 36 C      -22.1200   -36.4550   -24.4080 C.3   1 <1>  -0.1600 
 37 H1     -22.8160   -37.0950   -24.9430 H     1 <1>   0.0800 
 38 H2     -22.5260   -35.4480   -24.3090 H     1 <1>   0.0800 
 39 C      -20.7960   -36.4610   -25.1740 C.3   1 <1>  -0.1600 
 40 H1     -20.4360   -35.4470   -25.3430 H     1 <1>   0.0800 
 41 H2     -20.9240   -36.9770   -26.1270 H     1 <1>   0.0800 
 42 C      -19.8190   -37.2340   -24.2900 C.3   1 <1>   0.3430 
 43 H1     -19.1100   -36.5270   -23.8810 H     1 <1>   0.0800 
 44 H2     -19.2250   -37.9100   -24.8890 H     1 <1>   0.0800 
 45 C      -19.6720   -40.8880   -25.1070 C.ar  1 <1>  -0.1500 
 46 H      -20.5370   -40.8850   -25.7200 H     1 <1>   0.1500 
 47 C      -18.5540   -41.5890   -25.5190 C.ar  1 <1>  -0.1500 
 48 H      -18.5710   -42.1340   -26.4260 H     1 <1>   0.1500 
 49 H      -21.5800   -36.2370   -22.3920 H     1 <1>   0.0800 
@<TRIPOS>BOND
  1   1   2  1   
  2   1   3  ar  
  3   1  47  ar  
  4   3   4  1   
  5   3  23  ar  
  6   4   5  1   
  7   4   6  1   
  8   4   7  1   
  9   7   8  1   
 10   7   9  1   
 11   7  16  1   
 12   9  10  1   
 13   9  11  1   
 14   9  12  1   
 15  12  13  1   
 16  12  14  1   
 17  12  15  1   
 18  16  17  1   
 19  16  18  1   
 20  16  19  1   
 21  19  20  1   
 22  19  21  1   
 23  19  22  1   
 24  23  24  1   
 25  23  25  ar  
 26  25  26  1   
 27  25  45  ar  
 28  26  27  1   
 29  26  28  1   
 30  26  29  1   
 31  29  30  1   
 32  29  31  1   
 33  29  42  1   
 34  31  32  1   
 35  31  36  1   
 36  31  49  1   
 37  32  33  1   
 38  32  34  1   
 39  32  35  1   
 40  36  37  1   
 41  36  38  1   
 42  36  39  1   
 43  39  40  1   
 44  39  41  1   
 45  39  42  1   
 46  42  43  1   
 47  42  44  1   
 48  45  46  1   
 49  45  47  ar  
 50  47  48  1   
@<TRIPOS>SUBSTRUCTURE
  1 ****  23 GROUP 4 **** **** 0
@<TRIPOS>PROPERTY_DATA
rseq	|	1
mseq	|	7
S	|	-6.63215208053589
rmsd_refine	|	2.22062659263611
E_conf	|	-157.057266235352
E_place	|	-50.2788124084473
E_score1	|	-10.2729616165161
E_refine	|	-22.575231552124
E_score2	|	-6.63215208053589
Field_1	|	6
Field_2	|	cc-2-47
E_orig	|	2.86712670326233
PLIF_pronum	|	1
PLIF_raw	|	[[],[],[],[],[]]
FP:PLIF	|	
PLIF_ligidx	|	[]

# MOE 2020.09 (io_trps.svl 2020.11)

@<TRIPOS>MOLECULE
2XQJ
49 50 1 0 0 
SMALL
USER_CHARGES


@<TRIPOS>ATOM
  1 C      -18.2590   -38.4120   -24.0170 C.ar  1 <1>  -0.1710 
  2 O      -17.0650   -37.9980   -24.2330 O.3   1 <1>  -0.8290 
  3 C      -18.5420   -39.7630   -23.6900 C.ar  1 <1>  -0.1440 
  4 C      -17.4600   -40.8250   -23.5620 C.3   1 <1>   0.4860 
  5 H1     -17.4060   -41.3240   -24.5200 H     1 <1>   0.0800 
  6 H2     -17.8520   -41.5930   -22.9090 H     1 <1>   0.0800 
  7 N      -16.0750   -40.4290   -23.1120 N.4   1 <1>  -0.9590 
  8 H      -15.7530   -39.7900   -23.8270 H     1 <1>   0.4500 
  9 C      -15.1670   -41.6300   -23.1060 C.3   1 <1>   0.3430 
 10 H1     -15.5230   -42.3820   -22.4140 H     1 <1>   0.0800 
 11 H2     -15.2110   -42.1290   -24.0650 H     1 <1>   0.0800 
 12 C      -13.6930   -41.3810   -22.8000 C.3   1 <1>  -0.2400 
 13 H1     -13.5410   -41.1880   -21.7400 H     1 <1>   0.0800 
 14 H2     -13.3150   -40.5400   -23.3790 H     1 <1>   0.0800 
 15 H3     -13.1170   -42.2660   -23.0550 H     1 <1>   0.0800 
 16 C      -16.0610   -39.6210   -21.8360 C.3   1 <1>   0.3430 
 17 H1     -16.0480   -40.2550   -20.9600 H     1 <1>   0.0800 
 18 H2     -16.9870   -39.0700   -21.7410 H     1 <1>   0.0800 
 19 C      -14.9280   -38.5900   -21.7190 C.3   1 <1>  -0.2400 
 20 H1     -14.7920   -38.0600   -22.6610 H     1 <1>   0.0800 
 21 H2     -13.9830   -39.0450   -21.4350 H     1 <1>   0.0800 
 22 H3     -15.1730   -37.8560   -20.9560 H     1 <1>   0.0800 
 23 C      -19.8580   -40.1690   -23.5240 C.ar  1 <1>  -0.1500 
 24 H      -20.0640   -41.1850   -23.3000 H     1 <1>   0.1500 
 25 C      -20.9210   -39.2740   -23.6500 C.ar  1 <1>  -0.1440 
 26 C      -22.3400   -39.7450   -23.4430 C.3   1 <1>   0.4870 
 27 H1     -23.0140   -38.9440   -23.7180 H     1 <1>   0.0800 
 28 H2     -22.5500   -40.5200   -24.1680 H     1 <1>   0.0800 
 29 N      -22.5830   -40.2160   -22.0460 N.4   1 <1>  -0.9590 
 30 H      -21.6860   -40.1200   -21.5920 H     1 <1>   0.4500 
 31 C      -23.5190   -39.3300   -21.2790 C.3   1 <1>   0.3430 
 32 H1     -24.4130   -39.1150   -21.8480 H     1 <1>   0.0800 
 33 H2     -23.0840   -38.3570   -21.0920 H     1 <1>   0.0800 
 34 C      -23.9410   -39.9500   -19.9480 C.3   1 <1>  -0.1600 
 35 H1     -23.0270   -40.1380   -19.3880 H     1 <1>   0.0800 
 36 H2     -24.5350   -39.2450   -19.3770 H     1 <1>   0.0800 
 37 C      -24.7160   -41.2660   -20.1360 C.3   1 <1>  -0.1600 
 38 H1     -24.5420   -41.9100   -19.2740 H     1 <1>   0.0800 
 39 H2     -25.7830   -41.0460   -20.1770 H     1 <1>   0.0800 
 40 C      -24.3310   -42.0170   -21.4270 C.3   1 <1>  -0.1600 
 41 H1     -25.0380   -41.7460   -22.2080 H     1 <1>   0.0800 
 42 H2     -24.4150   -43.0920   -21.2640 H     1 <1>   0.0800 
 43 C      -22.9200   -41.6920   -21.9440 C.3   1 <1>   0.3430 
 44 H1     -22.7790   -42.1970   -22.8900 H     1 <1>   0.0800 
 45 H2     -22.2190   -42.1870   -21.2850 H     1 <1>   0.0800 
 46 C      -20.6480   -37.9400   -23.9420 C.ar  1 <1>  -0.1500 
 47 H      -21.4410   -37.2420   -24.0300 H     1 <1>   0.1500 
 48 C      -19.3450   -37.5150   -24.1220 C.ar  1 <1>  -0.1500 
 49 H      -19.1570   -36.4990   -24.3520 H     1 <1>   0.1500 
@<TRIPOS>BOND
  1   1   2  1   
  2   1   3  ar  
  3   1  48  ar  
  4   3   4  1   
  5   3  23  ar  
  6   4   5  1   
  7   4   6  1   
  8   4   7  1   
  9   7   8  1   
 10   7   9  1   
 11   7  16  1   
 12   9  10  1   
 13   9  11  1   
 14   9  12  1   
 15  12  13  1   
 16  12  14  1   
 17  12  15  1   
 18  16  17  1   
 19  16  18  1   
 20  16  19  1   
 21  19  20  1   
 22  19  21  1   
 23  19  22  1   
 24  23  24  1   
 25  23  25  ar  
 26  25  26  1   
 27  25  46  ar  
 28  26  27  1   
 29  26  28  1   
 30  26  29  1   
 31  29  30  1   
 32  29  31  1   
 33  29  43  1   
 34  31  32  1   
 35  31  33  1   
 36  31  34  1   
 37  34  35  1   
 38  34  36  1   
 39  34  37  1   
 40  37  38  1   
 41  37  39  1   
 42  37  40  1   
 43  40  41  1   
 44  40  42  1   
 45  40  43  1   
 46  43  44  1   
 47  43  45  1   
 48  46  47  1   
 49  46  48  ar  
 50  48  49  1   
@<TRIPOS>SUBSTRUCTURE
  1 ****  23 GROUP 4 **** **** 0
@<TRIPOS>PROPERTY_DATA
rseq	|	1
mseq	|	8
S	|	-6.94816875457764
rmsd_refine	|	2.07359433174133
E_conf	|	-131.269058227539
E_place	|	-58.8549957275391
E_score1	|	-10.1749544143677
E_refine	|	-34.4042282104492
E_score2	|	-6.94816875457764
Field_1	|	7
Field_2	|	cc-2-43
E_orig	|	2
PLIF_pronum	|	1
PLIF_raw	|	[[2,1,48,46,25,23,3],[1790,6787,6787,6787,6787,6787,6787],[117,438,438,438,438,438,438],[4,10,10,10,10,10,10],[1.4,0.9,0.9,0.9,0.9,0.9,0.9]]
FP:PLIF	|	20 14
PLIF_ligidx	|	[2,[1,48,46,25,23,3]]

# MOE 2020.09 (io_trps.svl 2020.11)

@<TRIPOS>MOLECULE
2XQJ
49 50 1 0 0 
SMALL
USER_CHARGES


@<TRIPOS>ATOM
  1 C      -18.3060   -38.3870   -24.0660 C.ar  1 <1>  -0.1710 
  2 O      -17.0820   -38.0270   -24.1840 O.3   1 <1>  -0.8290 
  3 C      -18.6870   -39.7280   -23.7980 C.ar  1 <1>  -0.1440 
  4 C      -17.6800   -40.8350   -23.5010 C.3   1 <1>   0.4860 
  5 H1     -17.6690   -41.4720   -24.3750 H     1 <1>   0.0800 
  6 H2     -18.1230   -41.4680   -22.7460 H     1 <1>   0.0800 
  7 N      -16.2590   -40.4840   -23.1120 N.4   1 <1>  -0.9590 
  8 H      -15.9440   -39.8620   -23.8460 H     1 <1>   0.4500 
  9 C      -15.3890   -41.7140   -23.1260 C.3   1 <1>   0.3430 
 10 H1     -15.7350   -42.4400   -22.4020 H     1 <1>   0.0800 
 11 H2     -15.4990   -42.2300   -24.0700 H     1 <1>   0.0800 
 12 C      -13.8910   -41.5130   -22.9000 C.3   1 <1>  -0.2400 
 13 H1     -13.6790   -41.2960   -21.8550 H     1 <1>   0.0800 
 14 H2     -13.5060   -40.7070   -23.5220 H     1 <1>   0.0800 
 15 H3     -13.3610   -42.4270   -23.1510 H     1 <1>   0.0800 
 16 C      -16.1700   -39.6630   -21.8450 C.3   1 <1>   0.3430 
 17 H1     -16.1590   -40.2900   -20.9640 H     1 <1>   0.0800 
 18 H2     -17.0700   -39.0740   -21.7300 H     1 <1>   0.0800 
 19 C      -14.9930   -38.6790   -21.7590 C.3   1 <1>  -0.2400 
 20 H1     -14.0600   -39.1710   -21.4960 H     1 <1>   0.0800 
 21 H2     -15.1890   -37.9330   -20.9920 H     1 <1>   0.0800 
 22 H3     -14.8550   -38.1570   -22.7050 H     1 <1>   0.0800 
 23 C      -20.0300   -40.0840   -23.8620 C.ar  1 <1>  -0.1500 
 24 H      -20.3040   -41.0970   -23.7170 H     1 <1>   0.1500 
 25 C      -21.0250   -39.1420   -24.1390 C.ar  1 <1>  -0.1440 
 26 C      -22.4800   -39.5180   -24.3250 C.3   1 <1>   0.4870 
 27 H1     -22.9840   -38.6350   -24.6950 H     1 <1>   0.0800 
 28 H2     -22.5360   -40.1980   -25.1650 H     1 <1>   0.0800 
 29 N      -23.2260   -40.0720   -23.1430 N.4   1 <1>  -0.9590 
 30 H      -24.2040   -39.9390   -23.3650 H     1 <1>   0.4500 
 31 C      -23.0750   -41.5570   -22.9740 C.3   1 <1>   0.3430 
 32 H1     -22.0430   -41.8230   -22.7930 H     1 <1>   0.0800 
 33 H2     -23.3310   -42.0880   -23.8820 H     1 <1>   0.0800 
 34 C      -23.9140   -42.1300   -21.8250 C.3   1 <1>  -0.1600 
 35 H1     -24.9710   -42.0320   -22.0750 H     1 <1>   0.0800 
 36 H2     -23.6840   -43.1890   -21.7070 H     1 <1>   0.0800 
 37 C      -23.6360   -41.3950   -20.5070 C.3   1 <1>  -0.1600 
 38 H1     -22.6070   -41.5990   -20.2070 H     1 <1>   0.0800 
 39 H2     -24.3130   -41.7620   -19.7330 H     1 <1>   0.0800 
 40 C      -23.8140   -39.8770   -20.6770 C.3   1 <1>  -0.1600 
 41 H1     -23.5020   -39.3710   -19.7630 H     1 <1>   0.0800 
 42 H2     -24.8680   -39.6590   -20.8470 H     1 <1>   0.0800 
 43 C      -23.0030   -39.3250   -21.8590 C.3   1 <1>   0.3430 
 44 H1     -21.9570   -39.3460   -21.5840 H     1 <1>   0.0800 
 45 H2     -23.2260   -38.2720   -21.9690 H     1 <1>   0.0800 
 46 C      -20.6580   -37.8100   -24.3020 C.ar  1 <1>  -0.1500 
 47 H      -21.3980   -37.0720   -24.4830 H     1 <1>   0.1500 
 48 C      -19.3300   -37.4350   -24.2580 C.ar  1 <1>  -0.1500 
 49 H      -19.0740   -36.4200   -24.4060 H     1 <1>   0.1500 
@<TRIPOS>BOND
  1   1   2  1   
  2   1   3  ar  
  3   1  48  ar  
  4   3   4  1   
  5   3  23  ar  
  6   4   5  1   
  7   4   6  1   
  8   4   7  1   
  9   7   8  1   
 10   7   9  1   
 11   7  16  1   
 12   9  10  1   
 13   9  11  1   
 14   9  12  1   
 15  12  13  1   
 16  12  14  1   
 17  12  15  1   
 18  16  17  1   
 19  16  18  1   
 20  16  19  1   
 21  19  20  1   
 22  19  21  1   
 23  19  22  1   
 24  23  24  1   
 25  23  25  ar  
 26  25  26  1   
 27  25  46  ar  
 28  26  27  1   
 29  26  28  1   
 30  26  29  1   
 31  29  30  1   
 32  29  31  1   
 33  29  43  1   
 34  31  32  1   
 35  31  33  1   
 36  31  34  1   
 37  34  35  1   
 38  34  36  1   
 39  34  37  1   
 40  37  38  1   
 41  37  39  1   
 42  37  40  1   
 43  40  41  1   
 44  40  42  1   
 45  40  43  1   
 46  43  44  1   
 47  43  45  1   
 48  46  47  1   
 49  46  48  ar  
 50  48  49  1   
@<TRIPOS>SUBSTRUCTURE
  1 ****  23 GROUP 4 **** **** 0
@<TRIPOS>PROPERTY_DATA
rseq	|	1
mseq	|	8
S	|	-6.8017954826355
rmsd_refine	|	2.52199840545654
E_conf	|	-137.166885375977
E_place	|	-56.6128311157227
E_score1	|	-10.2262773513794
E_refine	|	-35.0217552185059
E_score2	|	-6.8017954826355
Field_1	|	7
Field_2	|	cc-2-43
E_orig	|	1.87381339073181
PLIF_pronum	|	1
PLIF_raw	|	[[2,1,48,46,25,23,3],[1790,6787,6787,6787,6787,6787,6787],[117,438,438,438,438,438,438],[4,10,10,10,10,10,10],[1.1,1.3,1.3,1.3,1.3,1.3,1.3]]
FP:PLIF	|	20 14 28
PLIF_ligidx	|	[2,[1,48,46,25,23,3],[1,48,46,25,23,3]]

# MOE 2020.09 (io_trps.svl 2020.11)

@<TRIPOS>MOLECULE
2XQJ
49 50 1 0 0 
SMALL
USER_CHARGES


@<TRIPOS>ATOM
  1 C      -20.8540   -39.2450   -22.7310 C.ar  1 <1>  -0.1710 
  2 O      -21.9160   -38.6510   -22.3360 O.3   1 <1>  -0.8290 
  3 C      -19.9160   -38.6070   -23.5770 C.ar  1 <1>  -0.1440 
  4 C      -20.1530   -37.2030   -24.0910 C.3   1 <1>   0.4860 
  5 H1     -19.2050   -36.8210   -24.4440 H     1 <1>   0.0800 
  6 H2     -20.3380   -36.5870   -23.2230 H     1 <1>   0.0800 
  7 N      -21.2230   -36.9930   -25.1490 N.4   1 <1>  -0.9590 
  8 H      -20.7420   -36.7140   -25.9910 H     1 <1>   0.4500 
  9 C      -22.1150   -35.8350   -24.8020 C.3   1 <1>   0.3430 
 10 H1     -21.5810   -34.9020   -24.9070 H     1 <1>   0.0800 
 11 H2     -22.9120   -35.7440   -25.5270 H     1 <1>   0.0800 
 12 C      -22.7550   -35.8490   -23.4070 C.3   1 <1>  -0.2400 
 13 H1     -22.0130   -35.8160   -22.6110 H     1 <1>   0.0800 
 14 H2     -23.3690   -36.7380   -23.2730 H     1 <1>   0.0800 
 15 H3     -23.3870   -34.9750   -23.2850 H     1 <1>   0.0800 
 16 C      -22.0240   -38.2150   -25.5380 C.3   1 <1>   0.3430 
 17 H1     -22.9560   -37.9140   -25.9950 H     1 <1>   0.0800 
 18 H2     -22.3470   -38.7760   -24.6710 H     1 <1>   0.0800 
 19 C      -21.3440   -39.1690   -26.5250 C.3   1 <1>  -0.2400 
 20 H1     -20.4980   -39.6710   -26.0630 H     1 <1>   0.0800 
 21 H2     -21.0050   -38.6310   -27.4100 H     1 <1>   0.0800 
 22 H3     -22.0410   -39.9420   -26.8440 H     1 <1>   0.0800 
 23 C      -18.7540   -39.2630   -23.9400 C.ar  1 <1>  -0.1500 
 24 H      -18.0460   -38.7650   -24.5470 H     1 <1>   0.1500 
 25 C      -18.4910   -40.5590   -23.5050 C.ar  1 <1>  -0.1440 
 26 C      -17.1720   -41.2060   -23.8300 C.3   1 <1>   0.4870 
 27 H1     -17.3150   -42.2790   -23.8310 H     1 <1>   0.0800 
 28 H2     -16.9210   -40.9720   -24.8560 H     1 <1>   0.0800 
 29 N      -16.0770   -40.8030   -22.8910 N.4   1 <1>  -0.9590 
 30 H      -16.3970   -41.0570   -21.9660 H     1 <1>   0.4500 
 31 C      -14.8150   -41.5700   -23.1140 C.3   1 <1>   0.3430 
 32 H1     -14.4670   -41.4700   -24.1310 H     1 <1>   0.0800 
 33 H2     -14.9710   -42.6350   -22.9920 H     1 <1>   0.0800 
 34 C      -13.6860   -41.1380   -22.1830 C.3   1 <1>  -0.1600 
 35 H1     -13.9810   -41.3770   -21.1660 H     1 <1>   0.0800 
 36 H2     -12.7940   -41.6940   -22.4490 H     1 <1>   0.0800 
 37 C      -13.3990   -39.6400   -22.2350 C.3   1 <1>  -0.1600 
 38 H1     -13.0110   -39.3660   -23.2150 H     1 <1>   0.0800 
 39 H2     -12.6590   -39.4080   -21.4780 H     1 <1>   0.0800 
 40 C      -14.6860   -38.8680   -21.9360 C.3   1 <1>  -0.1600 
 41 H1     -14.5060   -37.8000   -22.0650 H     1 <1>   0.0800 
 42 H2     -14.9750   -39.0470   -20.9010 H     1 <1>   0.0800 
 43 C      -15.8390   -39.3110   -22.8430 C.3   1 <1>   0.3430 
 44 H1     -15.6410   -38.9270   -23.8330 H     1 <1>   0.0800 
 45 H2     -16.7280   -38.7810   -22.5280 H     1 <1>   0.0800 
 46 C      -19.4290   -41.2120   -22.7090 C.ar  1 <1>  -0.1500 
 47 H      -19.2510   -42.2040   -22.3820 H     1 <1>   0.1500 
 48 C      -20.5920   -40.5700   -22.3270 C.ar  1 <1>  -0.1500 
 49 H      -21.2980   -41.0710   -21.7150 H     1 <1>   0.1500 
@<TRIPOS>BOND
  1   1   2  1   
  2   1   3  ar  
  3   1  48  ar  
  4   3   4  1   
  5   3  23  ar  
  6   4   5  1   
  7   4   6  1   
  8   4   7  1   
  9   7   8  1   
 10   7   9  1   
 11   7  16  1   
 12   9  10  1   
 13   9  11  1   
 14   9  12  1   
 15  12  13  1   
 16  12  14  1   
 17  12  15  1   
 18  16  17  1   
 19  16  18  1   
 20  16  19  1   
 21  19  20  1   
 22  19  21  1   
 23  19  22  1   
 24  23  24  1   
 25  23  25  ar  
 26  25  26  1   
 27  25  46  ar  
 28  26  27  1   
 29  26  28  1   
 30  26  29  1   
 31  29  30  1   
 32  29  31  1   
 33  29  43  1   
 34  31  32  1   
 35  31  33  1   
 36  31  34  1   
 37  34  35  1   
 38  34  36  1   
 39  34  37  1   
 40  37  38  1   
 41  37  39  1   
 42  37  40  1   
 43  40  41  1   
 44  40  42  1   
 45  40  43  1   
 46  43  44  1   
 47  43  45  1   
 48  46  47  1   
 49  46  48  ar  
 50  48  49  1   
@<TRIPOS>SUBSTRUCTURE
  1 ****  23 GROUP 4 **** **** 0
@<TRIPOS>PROPERTY_DATA
rseq	|	1
mseq	|	8
S	|	-6.7748966217041
rmsd_refine	|	1.1274961233139
E_conf	|	-137.298278808594
E_place	|	-51.5951080322266
E_score1	|	-9.89292240142822
E_refine	|	-29.6386032104492
E_score2	|	-6.7748966217041
Field_1	|	7
Field_2	|	cc-2-43
E_orig	|	3.31514477729797
PLIF_pronum	|	1
PLIF_raw	|	[[9,2,7],[3013,6787,3013],[197,438,197],[1,7,7],[1,0.6980284344,0.8480526935]]
FP:PLIF	|	3 8 4
PLIF_ligidx	|	[9,7,2]

# MOE 2020.09 (io_trps.svl 2020.11)

@<TRIPOS>MOLECULE
2XQJ
49 50 1 0 0 
SMALL
USER_CHARGES


@<TRIPOS>ATOM
  1 C      -21.0930   -39.2140   -22.6300 C.ar  1 <1>  -0.1710 
  2 O      -22.1230   -38.4880   -22.3930 O.3   1 <1>  -0.8290 
  3 C      -20.9190   -40.4620   -21.9920 C.ar  1 <1>  -0.1440 
  4 C      -21.9690   -40.9410   -21.0180 C.3   1 <1>   0.4860 
  5 H1     -22.5860   -40.0910   -20.7570 H     1 <1>   0.0800 
  6 H2     -21.4680   -41.1860   -20.0920 H     1 <1>   0.0800 
  7 N      -22.8150   -42.0910   -21.4950 N.4   1 <1>  -0.9590 
  8 H      -22.1730   -42.8440   -21.6920 H     1 <1>   0.4500 
  9 C      -23.5010   -41.7920   -22.8010 C.3   1 <1>   0.3430 
 10 H1     -24.3000   -41.0750   -22.6660 H     1 <1>   0.0800 
 11 H2     -22.8260   -41.2900   -23.4820 H     1 <1>   0.0800 
 12 C      -24.0580   -43.0190   -23.5300 C.3   1 <1>  -0.2400 
 13 H1     -24.8410   -43.4980   -22.9440 H     1 <1>   0.0800 
 14 H2     -23.2650   -43.7430   -23.7130 H     1 <1>   0.0800 
 15 H3     -24.4800   -42.7310   -24.4910 H     1 <1>   0.0800 
 16 C      -23.7540   -42.5870   -20.4300 C.3   1 <1>   0.3430 
 17 H1     -23.1970   -42.9620   -19.5820 H     1 <1>   0.0800 
 18 H2     -24.3020   -43.4550   -20.7720 H     1 <1>   0.0800 
 19 C      -24.7710   -41.5650   -19.9050 C.3   1 <1>  -0.2400 
 20 H1     -25.4660   -41.2690   -20.6900 H     1 <1>   0.0800 
 21 H2     -24.2790   -40.6710   -19.5230 H     1 <1>   0.0800 
 22 H3     -25.3360   -42.0060   -19.0870 H     1 <1>   0.0800 
 23 C      -19.8070   -41.2410   -22.2660 C.ar  1 <1>  -0.1500 
 24 H      -19.7020   -42.1810   -21.7890 H     1 <1>   0.1500 
 25 C      -18.8250   -40.8070   -23.1570 C.ar  1 <1>  -0.1440 
 26 C      -17.6120   -41.6740   -23.4070 C.3   1 <1>   0.4870 
 27 H1     -17.6760   -42.5110   -22.7240 H     1 <1>   0.0800 
 28 H2     -17.7290   -42.1370   -24.3780 H     1 <1>   0.0800 
 29 N      -16.2650   -41.0060   -23.2880 N.4   1 <1>  -0.9590 
 30 H      -16.1020   -40.5340   -24.1640 H     1 <1>   0.4500 
 31 C      -16.1810   -39.9450   -22.2120 C.3   1 <1>   0.3430 
 32 H1     -16.4280   -40.3580   -21.2450 H     1 <1>   0.0800 
 33 H2     -16.9170   -39.1650   -22.3580 H     1 <1>   0.0800 
 34 C      -14.8000   -39.2870   -22.0890 C.3   1 <1>  -0.1600 
 35 H1     -14.6030   -38.7090   -22.9920 H     1 <1>   0.0800 
 36 H2     -14.8030   -38.6070   -21.2370 H     1 <1>   0.0800 
 37 C      -13.6950   -40.3340   -21.9030 C.3   1 <1>  -0.1600 
 38 H1     -13.8300   -40.8220   -20.9430 H     1 <1>   0.0800 
 39 H2     -12.7160   -39.8520   -21.9190 H     1 <1>   0.0800 
 40 C      -13.7710   -41.4000   -23.0000 C.3   1 <1>  -0.1600 
 41 H1     -13.0550   -42.1910   -22.7930 H     1 <1>   0.0800 
 42 H2     -13.5080   -40.9440   -23.9450 H     1 <1>   0.0800 
 43 C      -15.1640   -42.0180   -23.1340 C.3   1 <1>   0.3430 
 44 H1     -15.3350   -42.6390   -22.2630 H     1 <1>   0.0800 
 45 H2     -15.1500   -42.7200   -23.9570 H     1 <1>   0.0800 
 46 C      -18.9890   -39.5750   -23.7930 C.ar  1 <1>  -0.1500 
 47 H      -18.2560   -39.2320   -24.4740 H     1 <1>   0.1500 
 48 C      -20.0990   -38.7900   -23.5370 C.ar  1 <1>  -0.1500 
 49 H      -20.2160   -37.8560   -24.0240 H     1 <1>   0.1500 
@<TRIPOS>BOND
  1   1   2  1   
  2   1   3  ar  
  3   1  48  ar  
  4   3   4  1   
  5   3  23  ar  
  6   4   5  1   
  7   4   6  1   
  8   4   7  1   
  9   7   8  1   
 10   7   9  1   
 11   7  16  1   
 12   9  10  1   
 13   9  11  1   
 14   9  12  1   
 15  12  13  1   
 16  12  14  1   
 17  12  15  1   
 18  16  17  1   
 19  16  18  1   
 20  16  19  1   
 21  19  20  1   
 22  19  21  1   
 23  19  22  1   
 24  23  24  1   
 25  23  25  ar  
 26  25  26  1   
 27  25  46  ar  
 28  26  27  1   
 29  26  28  1   
 30  26  29  1   
 31  29  30  1   
 32  29  31  1   
 33  29  43  1   
 34  31  32  1   
 35  31  33  1   
 36  31  34  1   
 37  34  35  1   
 38  34  36  1   
 39  34  37  1   
 40  37  38  1   
 41  37  39  1   
 42  37  40  1   
 43  40  41  1   
 44  40  42  1   
 45  40  43  1   
 46  43  44  1   
 47  43  45  1   
 48  46  47  1   
 49  46  48  ar  
 50  48  49  1   
@<TRIPOS>SUBSTRUCTURE
  1 ****  23 GROUP 4 **** **** 0
@<TRIPOS>PROPERTY_DATA
rseq	|	1
mseq	|	8
S	|	-6.73365020751953
rmsd_refine	|	2.43637275695801
E_conf	|	-146.074951171875
E_place	|	-63.8780097961426
E_score1	|	-9.97628498077393
E_refine	|	-34.4767761230469
E_score2	|	-6.73365020751953
Field_1	|	7
Field_2	|	cc-2-43
E_orig	|	1.93043911457062
PLIF_pronum	|	1
PLIF_raw	|	[[2,9,9,9,9,9],[6787,1245,1248,1246,1243,1242],[438,82,82,82,82,82],[7,10,10,10,10,10],[0.5310080184,1.5,1.5,1.5,1.5,1.5]]
FP:PLIF	|	2 15 4
PLIF_ligidx	|	[[9,9,9,9,9],[9,9,9,9,9],2]

# MOE 2020.09 (io_trps.svl 2020.11)

@<TRIPOS>MOLECULE
2XQJ
49 50 1 0 0 
SMALL
USER_CHARGES


@<TRIPOS>ATOM
  1 C      -20.8470   -38.6410   -22.8450 C.ar  1 <1>  -0.1710 
  2 O      -21.8360   -37.8770   -22.5570 O.3   1 <1>  -0.8290 
  3 C      -20.7650   -39.9680   -22.3590 C.ar  1 <1>  -0.1440 
  4 C      -21.8130   -40.5160   -21.4220 C.3   1 <1>   0.4860 
  5 H1     -21.6250   -40.0650   -20.4590 H     1 <1>   0.0800 
  6 H2     -21.5970   -41.5620   -21.2530 H     1 <1>   0.0800 
  7 N      -23.2410   -40.3270   -21.8440 N.4   1 <1>  -0.9590 
  8 H      -23.1840   -39.7960   -22.7080 H     1 <1>   0.4500 
  9 C      -24.0060   -39.4470   -20.8960 C.3   1 <1>   0.3430 
 10 H1     -23.6280   -38.4330   -20.9250 H     1 <1>   0.0800 
 11 H2     -25.0350   -39.3430   -21.2090 H     1 <1>   0.0800 
 12 C      -23.9990   -39.9050   -19.4360 C.3   1 <1>  -0.2400 
 13 H1     -24.6080   -39.2650   -18.8100 H     1 <1>   0.0800 
 14 H2     -24.3690   -40.9270   -19.3460 H     1 <1>   0.0800 
 15 H3     -22.9890   -39.8360   -19.0430 H     1 <1>   0.0800 
 16 C      -23.9400   -41.6180   -22.1580 C.3   1 <1>   0.3430 
 17 H1     -25.0010   -41.4520   -22.2870 H     1 <1>   0.0800 
 18 H2     -23.8910   -42.2980   -21.3180 H     1 <1>   0.0800 
 19 C      -23.4350   -42.3580   -23.4000 C.3   1 <1>  -0.2400 
 20 H1     -22.3990   -42.6710   -23.2720 H     1 <1>   0.0800 
 21 H2     -23.4990   -41.7150   -24.2790 H     1 <1>   0.0800 
 22 H3     -24.0410   -43.2470   -23.5790 H     1 <1>   0.0800 
 23 C      -19.6900   -40.7720   -22.6970 C.ar  1 <1>  -0.1500 
 24 H      -19.6460   -41.7650   -22.3280 H     1 <1>   0.1500 
 25 C      -18.6590   -40.2940   -23.5000 C.ar  1 <1>  -0.1440 
 26 C      -17.4940   -41.2000   -23.8170 C.3   1 <1>   0.4870 
 27 H1     -17.6770   -42.1390   -23.3120 H     1 <1>   0.0800 
 28 H2     -17.5500   -41.4630   -24.8650 H     1 <1>   0.0800 
 29 N      -16.1320   -40.6720   -23.4640 N.4   1 <1>  -0.9590 
 30 H      -15.8360   -40.1010   -24.2410 H     1 <1>   0.4500 
 31 C      -16.1040   -39.7720   -22.2450 C.3   1 <1>   0.3430 
 32 H1     -16.5010   -40.2850   -21.3810 H     1 <1>   0.0800 
 33 H2     -16.7540   -38.9160   -22.3630 H     1 <1>   0.0800 
 34 C      -14.7040   -39.2640   -21.8810 C.3   1 <1>  -0.1600 
 35 H1     -14.3510   -38.5950   -22.6670 H     1 <1>   0.0800 
 36 H2     -14.7560   -38.7030   -20.9480 H     1 <1>   0.0800 
 37 C      -13.7210   -40.4280   -21.7220 C.3   1 <1>  -0.1600 
 38 H1     -14.0450   -41.0470   -20.8920 H     1 <1>   0.0800 
 39 H2     -12.7160   -40.0520   -21.5280 H     1 <1>   0.0800 
 40 C      -13.7250   -41.2940   -22.9830 C.3   1 <1>  -0.1600 
 41 H1     -13.0760   -42.1560   -22.8430 H     1 <1>   0.0800 
 42 H2     -13.3510   -40.6970   -23.8060 H     1 <1>   0.0800 
 43 C      -15.1280   -41.7820   -23.3460 C.3   1 <1>   0.3430 
 44 H1     -15.4330   -42.5000   -22.5960 H     1 <1>   0.0800 
 45 H2     -15.0650   -42.3620   -24.2570 H     1 <1>   0.0800 
 46 C      -18.7200   -38.9810   -23.9680 C.ar  1 <1>  -0.1500 
 47 H      -17.9350   -38.5960   -24.5610 H     1 <1>   0.1500 
 48 C      -19.7930   -38.1680   -23.6540 C.ar  1 <1>  -0.1500 
 49 H      -19.8330   -37.1730   -24.0170 H     1 <1>   0.1500 
@<TRIPOS>BOND
  1   1   2  1   
  2   1   3  ar  
  3   1  48  ar  
  4   3   4  1   
  5   3  23  ar  
  6   4   5  1   
  7   4   6  1   
  8   4   7  1   
  9   7   8  1   
 10   7   9  1   
 11   7  16  1   
 12   9  10  1   
 13   9  11  1   
 14   9  12  1   
 15  12  13  1   
 16  12  14  1   
 17  12  15  1   
 18  16  17  1   
 19  16  18  1   
 20  16  19  1   
 21  19  20  1   
 22  19  21  1   
 23  19  22  1   
 24  23  24  1   
 25  23  25  ar  
 26  25  26  1   
 27  25  46  ar  
 28  26  27  1   
 29  26  28  1   
 30  26  29  1   
 31  29  30  1   
 32  29  31  1   
 33  29  43  1   
 34  31  32  1   
 35  31  33  1   
 36  31  34  1   
 37  34  35  1   
 38  34  36  1   
 39  34  37  1   
 40  37  38  1   
 41  37  39  1   
 42  37  40  1   
 43  40  41  1   
 44  40  42  1   
 45  40  43  1   
 46  43  44  1   
 47  43  45  1   
 48  46  47  1   
 49  46  48  ar  
 50  48  49  1   
@<TRIPOS>SUBSTRUCTURE
  1 ****  23 GROUP 4 **** **** 0
@<TRIPOS>PROPERTY_DATA
rseq	|	1
mseq	|	8
S	|	-6.70622587203979
rmsd_refine	|	1.72129142284393
E_conf	|	-141.524688720703
E_place	|	-47.4566230773926
E_score1	|	-9.70901393890381
E_refine	|	-32.4218559265137
E_score2	|	-6.70622587203979
Field_1	|	7
Field_2	|	cc-2-43
E_orig	|	3.68502712249756
PLIF_pronum	|	1
PLIF_raw	|	[2,6787,438,7,1.534189139]
FP:PLIF	|	4
PLIF_ligidx	|	2

# MOE 2020.09 (io_trps.svl 2020.11)

@<TRIPOS>MOLECULE
2XQJ
46 47 1 0 0 
SMALL
USER_CHARGES


@<TRIPOS>ATOM
  1 C      -19.7630   -38.3730   -23.4050 C.ar  1 <1>  -0.1710 
  2 O      -18.9280   -37.7160   -24.1330 O.3   1 <1>  -0.8290 
  3 C      -21.1630   -38.2090   -23.5380 C.ar  1 <1>  -0.1440 
  4 C      -21.7130   -37.2750   -24.5860 C.3   1 <1>   0.4870 
  5 H1     -21.4400   -36.2650   -24.3100 H     1 <1>   0.0800 
  6 H2     -22.7910   -37.2850   -24.5080 H     1 <1>   0.0800 
  7 N      -21.2720   -37.5920   -25.9800 N.4   1 <1>  -0.9590 
  8 H      -20.2980   -37.3180   -26.0320 H     1 <1>   0.4500 
  9 C      -22.0220   -36.8580   -27.0280 C.3   1 <1>   0.3430 
 10 H1     -22.9140   -36.3840   -26.6420 H     1 <1>   0.0800 
 11 H2     -21.4390   -36.0490   -27.4450 H     1 <1>   0.0800 
 12 C      -22.4120   -37.8310   -28.1410 C.3   1 <1>  -0.1600 
 13 H1     -23.4710   -38.0650   -28.0610 H     1 <1>   0.0800 
 14 H2     -22.2020   -37.3950   -29.1130 H     1 <1>   0.0800 
 15 C      -21.6010   -39.0960   -27.8690 C.3   1 <1>  -0.1600 
 16 H1     -20.6550   -39.0410   -28.4070 H     1 <1>   0.0800 
 17 H2     -22.1410   -40.0020   -28.1470 H     1 <1>   0.0800 
 18 C      -21.3210   -39.0340   -26.3700 C.3   1 <1>   0.3430 
 19 H1     -20.4220   -39.5810   -26.1180 H     1 <1>   0.0800 
 20 H2     -22.1200   -39.5490   -25.8540 H     1 <1>   0.0800 
 21 C      -22.0430   -38.9310   -22.7470 C.ar  1 <1>  -0.1500 
 22 H      -23.0870   -38.7910   -22.8650 H     1 <1>   0.1500 
 23 C      -21.5750   -39.8470   -21.8080 C.ar  1 <1>  -0.1440 
 24 C      -22.5440   -40.6450   -20.9630 C.3   1 <1>   0.4860 
 25 H1     -23.4380   -40.0480   -20.8430 H     1 <1>   0.0800 
 26 H2     -22.1400   -40.7020   -19.9610 H     1 <1>   0.0800 
 27 N      -22.8840   -42.0150   -21.4930 N.4   1 <1>  -0.9590 
 28 H      -23.5890   -42.3970   -20.8790 H     1 <1>   0.4500 
 29 C      -23.5060   -41.9330   -22.8610 C.3   1 <1>   0.3430 
 30 H1     -24.2470   -41.1470   -22.8880 H     1 <1>   0.0800 
 31 H2     -22.7780   -41.6210   -23.5980 H     1 <1>   0.0800 
 32 C      -24.1750   -43.2110   -23.3680 C.3   1 <1>  -0.2400 
 33 H1     -24.6470   -43.0330   -24.3340 H     1 <1>   0.0800 
 34 H2     -24.9370   -43.5490   -22.6670 H     1 <1>   0.0800 
 35 H3     -23.4350   -43.9980   -23.4970 H     1 <1>   0.0800 
 36 C      -21.7210   -42.9770   -21.4380 C.3   1 <1>   0.3430 
 37 H1     -22.0040   -43.9370   -21.8510 H     1 <1>   0.0800 
 38 H2     -20.9160   -42.6500   -22.0830 H     1 <1>   0.0800 
 39 C      -21.1400   -43.2360   -20.0440 C.3   1 <1>  -0.2400 
 40 H1     -20.3790   -44.0150   -20.0950 H     1 <1>   0.0800 
 41 H2     -20.6840   -42.3410   -19.6270 H     1 <1>   0.0800 
 42 H3     -21.9230   -43.5620   -19.3650 H     1 <1>   0.0800 
 43 C      -20.1990   -40.0250   -21.6770 C.ar  1 <1>  -0.1500 
 44 H      -19.8290   -40.7220   -20.9770 H     1 <1>   0.1500 
 45 C      -19.3060   -39.3040   -22.4510 C.ar  1 <1>  -0.1500 
 46 H      -18.2630   -39.4520   -22.3340 H     1 <1>   0.1500 
@<TRIPOS>BOND
  1   1   2  1   
  2   1   3  ar  
  3   1  45  ar  
  4   3   4  1   
  5   3  21  ar  
  6   4   5  1   
  7   4   6  1   
  8   4   7  1   
  9   7   8  1   
 10   7   9  1   
 11   7  18  1   
 12   9  10  1   
 13   9  11  1   
 14   9  12  1   
 15  12  13  1   
 16  12  14  1   
 17  12  15  1   
 18  15  16  1   
 19  15  17  1   
 20  15  18  1   
 21  18  19  1   
 22  18  20  1   
 23  21  22  1   
 24  21  23  ar  
 25  23  24  1   
 26  23  43  ar  
 27  24  25  1   
 28  24  26  1   
 29  24  27  1   
 30  27  28  1   
 31  27  29  1   
 32  27  36  1   
 33  29  30  1   
 34  29  31  1   
 35  29  32  1   
 36  32  33  1   
 37  32  34  1   
 38  32  35  1   
 39  36  37  1   
 40  36  38  1   
 41  36  39  1   
 42  39  40  1   
 43  39  41  1   
 44  39  42  1   
 45  43  44  1   
 46  43  45  ar  
 47  45  46  1   
@<TRIPOS>SUBSTRUCTURE
  1 ****  21 GROUP 4 **** **** 0
@<TRIPOS>PROPERTY_DATA
rseq	|	1
mseq	|	9
S	|	-7.12669610977173
rmsd_refine	|	0.761796176433563
E_conf	|	-133.086853027344
E_place	|	-84.7223739624023
E_score1	|	-11.5758934020996
E_refine	|	-37.8616104125977
E_score2	|	-7.12669610977173
Field_1	|	8
Field_2	|	cc-2-21
E_orig	|	1.60122561454773
PLIF_pronum	|	1
PLIF_raw	|	[[2,4,4,4,4,4,4,29,29,29,29,29],[6787,1245,1249,1253,1255,1251,1248,1245,1248,1246,1243,1242],[438,82,82,82,82,82,82,82,82,82,82,82],[7,10,10,10,10,10,10,10,10,10,10,10],[0.6371964179,0.7,0.7,0.7,0.7,0.7,0.7,1.3,1.3,1.3,1.3,1.3]]
FP:PLIF	|	2 15 4
PLIF_ligidx	|	[[4,4,4,4,4,4,29,29,29,29,29],[29,29,29,29,29],2]

# MOE 2020.09 (io_trps.svl 2020.11)

@<TRIPOS>MOLECULE
2XQJ
46 47 1 0 0 
SMALL
USER_CHARGES


@<TRIPOS>ATOM
  1 C      -19.1650   -38.3990   -23.5710 C.ar  1 <1>  -0.1710 
  2 O      -18.2500   -37.7270   -24.1710 O.3   1 <1>  -0.8290 
  3 C      -20.5310   -38.2390   -23.8910 C.ar  1 <1>  -0.1440 
  4 C      -20.9230   -37.2720   -24.9750 C.3   1 <1>   0.4870 
  5 H1     -20.0210   -36.9110   -25.4510 H     1 <1>   0.0800 
  6 H2     -21.3420   -36.3900   -24.5080 H     1 <1>   0.0800 
  7 N      -21.8620   -37.8640   -25.9790 N.4   1 <1>  -0.9590 
  8 H      -22.7160   -38.0950   -25.4950 H     1 <1>   0.4500 
  9 C      -21.3720   -39.1240   -26.6390 C.3   1 <1>   0.3430 
 10 H1     -20.3530   -39.3720   -26.3790 H     1 <1>   0.0800 
 11 H2     -21.9500   -39.9830   -26.3270 H     1 <1>   0.0800 
 12 C      -21.5000   -38.9630   -28.1550 C.3   1 <1>  -0.1600 
 13 H1     -20.5170   -38.7400   -28.5680 H     1 <1>   0.0800 
 14 H2     -21.9090   -39.8580   -28.6240 H     1 <1>   0.0800 
 15 C      -22.4180   -37.7570   -28.3310 C.3   1 <1>  -0.1600 
 16 H1     -23.4480   -38.1060   -28.3440 H     1 <1>   0.0800 
 17 H2     -22.1970   -37.1630   -29.2150 H     1 <1>   0.0800 
 18 C      -22.2100   -36.9370   -27.0700 C.3   1 <1>   0.3430 
 19 H1     -23.0790   -36.3350   -26.8530 H     1 <1>   0.0800 
 20 H2     -21.4140   -36.2280   -27.2520 H     1 <1>   0.0800 
 21 C      -21.5050   -39.0120   -23.2740 C.ar  1 <1>  -0.1500 
 22 H      -22.5210   -38.8810   -23.5410 H     1 <1>   0.1500 
 23 C      -21.1570   -39.9840   -22.3390 C.ar  1 <1>  -0.1440 
 24 C      -22.1510   -40.9490   -21.7380 C.3   1 <1>   0.4860 
 25 H1     -21.8840   -41.0990   -20.7000 H     1 <1>   0.0800 
 26 H2     -21.9320   -41.9090   -22.1860 H     1 <1>   0.0800 
 27 N      -23.6200   -40.6380   -21.8770 N.4   1 <1>  -0.9590 
 28 H      -23.7320   -40.2450   -22.8020 H     1 <1>   0.4500 
 29 C      -24.4810   -41.8800   -21.8680 C.3   1 <1>   0.3430 
 30 H1     -25.4930   -41.6370   -21.5730 H     1 <1>   0.0800 
 31 H2     -24.5990   -42.2630   -22.8730 H     1 <1>   0.0800 
 32 C      -24.0040   -43.0520   -20.9990 C.3   1 <1>  -0.2400 
 33 H1     -24.7670   -43.8220   -20.9850 H     1 <1>   0.0800 
 34 H2     -23.8120   -42.7600   -19.9690 H     1 <1>   0.0800 
 35 H3     -23.0970   -43.4970   -21.4070 H     1 <1>   0.0800 
 36 C      -24.1060   -39.5710   -20.9280 C.3   1 <1>   0.3430 
 37 H1     -23.6030   -38.6300   -21.1130 H     1 <1>   0.0800 
 38 H2     -25.1470   -39.3420   -21.1130 H     1 <1>   0.0800 
 39 C      -23.9660   -39.8900   -19.4410 C.3   1 <1>  -0.2400 
 40 H1     -24.4560   -39.1460   -18.8260 H     1 <1>   0.0800 
 41 H2     -22.9120   -39.9050   -19.1720 H     1 <1>   0.0800 
 42 H3     -24.4380   -40.8370   -19.1940 H     1 <1>   0.0800 
 43 C      -19.8160   -40.1290   -21.9980 C.ar  1 <1>  -0.1500 
 44 H      -19.5470   -40.8630   -21.2900 H     1 <1>   0.1500 
 45 C      -18.8350   -39.3500   -22.5850 C.ar  1 <1>  -0.1500 
 46 H      -17.8200   -39.4790   -22.3130 H     1 <1>   0.1500 
@<TRIPOS>BOND
  1   1   2  1   
  2   1   3  ar  
  3   1  45  ar  
  4   3   4  1   
  5   3  21  ar  
  6   4   5  1   
  7   4   6  1   
  8   4   7  1   
  9   7   8  1   
 10   7   9  1   
 11   7  18  1   
 12   9  10  1   
 13   9  11  1   
 14   9  12  1   
 15  12  13  1   
 16  12  14  1   
 17  12  15  1   
 18  15  16  1   
 19  15  17  1   
 20  15  18  1   
 21  18  19  1   
 22  18  20  1   
 23  21  22  1   
 24  21  23  ar  
 25  23  24  1   
 26  23  43  ar  
 27  24  25  1   
 28  24  26  1   
 29  24  27  1   
 30  27  28  1   
 31  27  29  1   
 32  27  36  1   
 33  29  30  1   
 34  29  31  1   
 35  29  32  1   
 36  32  33  1   
 37  32  34  1   
 38  32  35  1   
 39  36  37  1   
 40  36  38  1   
 41  36  39  1   
 42  39  40  1   
 43  39  41  1   
 44  39  42  1   
 45  43  44  1   
 46  43  45  ar  
 47  45  46  1   
@<TRIPOS>SUBSTRUCTURE
  1 ****  21 GROUP 4 **** **** 0
@<TRIPOS>PROPERTY_DATA
rseq	|	1
mseq	|	9
S	|	-6.8805685043335
rmsd_refine	|	0.83916187286377
E_conf	|	-127.720504760742
E_place	|	-70.9055480957031
E_score1	|	-11.4733963012695
E_refine	|	-32.6508522033691
E_score2	|	-6.8805685043335
Field_1	|	8
Field_2	|	cc-2-21
E_orig	|	2.20000004768372
PLIF_pronum	|	1
PLIF_raw	|	[[],[],[],[],[]]
FP:PLIF	|	
PLIF_ligidx	|	[]

# MOE 2020.09 (io_trps.svl 2020.11)

@<TRIPOS>MOLECULE
2XQJ
46 47 1 0 0 
SMALL
USER_CHARGES


@<TRIPOS>ATOM
  1 C      -19.5050   -38.7070   -23.3360 C.ar  1 <1>  -0.1710 
  2 O      -18.5710   -38.0750   -23.9560 O.3   1 <1>  -0.8290 
  3 C      -20.8690   -38.4840   -23.6270 C.ar  1 <1>  -0.1440 
  4 C      -21.2260   -37.4540   -24.6690 C.3   1 <1>   0.4870 
  5 H1     -20.3100   -36.9850   -25.0030 H     1 <1>   0.0800 
  6 H2     -21.7590   -36.6510   -24.1790 H     1 <1>   0.0800 
  7 N      -22.0000   -37.9920   -25.8300 N.4   1 <1>  -0.9590 
  8 H      -22.9150   -38.2550   -25.4940 H     1 <1>   0.4500 
  9 C      -21.4040   -39.2040   -26.4880 C.3   1 <1>   0.3430 
 10 H1     -20.3770   -39.3720   -26.1930 H     1 <1>   0.0800 
 11 H2     -21.9220   -40.1110   -26.2060 H     1 <1>   0.0800 
 12 C      -21.4720   -39.0250   -28.0090 C.3   1 <1>  -0.1600 
 13 H1     -21.9300   -39.8890   -28.4920 H     1 <1>   0.0800 
 14 H2     -20.4670   -38.8720   -28.3970 H     1 <1>   0.0800 
 15 C      -22.3030   -37.7600   -28.2230 C.3   1 <1>  -0.1600 
 16 H1     -23.3430   -38.0450   -28.3670 H     1 <1>   0.0800 
 17 H2     -21.9490   -37.1520   -29.0530 H     1 <1>   0.0800 
 18 C      -22.1880   -37.0000   -26.9100 C.3   1 <1>   0.3430 
 19 H1     -23.0400   -36.3540   -26.7580 H     1 <1>   0.0800 
 20 H2     -21.3390   -36.3340   -26.9800 H     1 <1>   0.0800 
 21 C      -21.8630   -39.2150   -22.9870 C.ar  1 <1>  -0.1500 
 22 H      -22.8790   -39.0400   -23.2320 H     1 <1>   0.1500 
 23 C      -21.5450   -40.1790   -22.0300 C.ar  1 <1>  -0.1440 
 24 C      -22.6460   -40.9780   -21.3540 C.3   1 <1>   0.4860 
 25 H1     -23.5850   -40.6110   -21.7450 H     1 <1>   0.0800 
 26 H2     -22.6740   -40.6740   -20.3160 H     1 <1>   0.0800 
 27 N      -22.5890   -42.4920   -21.4670 N.4   1 <1>  -0.9590 
 28 H      -23.4890   -42.8110   -21.1360 H     1 <1>   0.4500 
 29 C      -22.5000   -42.9980   -22.8900 C.3   1 <1>   0.3430 
 30 H1     -21.5930   -42.6500   -23.3690 H     1 <1>   0.0800 
 31 H2     -22.4020   -44.0750   -22.9040 H     1 <1>   0.0800 
 32 C      -23.6820   -42.6460   -23.7960 C.3   1 <1>  -0.2400 
 33 H1     -23.5570   -43.1150   -24.7720 H     1 <1>   0.0800 
 34 H2     -23.7460   -41.5680   -23.9420 H     1 <1>   0.0800 
 35 H3     -24.6160   -43.0060   -23.3630 H     1 <1>   0.0800 
 36 C      -21.5950   -43.1220   -20.5060 C.3   1 <1>   0.3430 
 37 H1     -21.1660   -42.3690   -19.8590 H     1 <1>   0.0800 
 38 H2     -22.1100   -43.7650   -19.8070 H     1 <1>   0.0800 
 39 C      -20.4300   -43.9330   -21.0960 C.3   1 <1>  -0.2400 
 40 H1     -19.7990   -44.3080   -20.2910 H     1 <1>   0.0800 
 41 H2     -20.7940   -44.7960   -21.6540 H     1 <1>   0.0800 
 42 H3     -19.8170   -43.3210   -21.7560 H     1 <1>   0.0800 
 43 C      -20.2020   -40.3710   -21.7060 C.ar  1 <1>  -0.1500 
 44 H      -19.9400   -41.0720   -20.9630 H     1 <1>   0.1500 
 45 C      -19.2000   -39.6590   -22.3440 C.ar  1 <1>  -0.1500 
 46 H      -18.1850   -39.8280   -22.0920 H     1 <1>   0.1500 
@<TRIPOS>BOND
  1   1   2  1   
  2   1   3  ar  
  3   1  45  ar  
  4   3   4  1   
  5   3  21  ar  
  6   4   5  1   
  7   4   6  1   
  8   4   7  1   
  9   7   8  1   
 10   7   9  1   
 11   7  18  1   
 12   9  10  1   
 13   9  11  1   
 14   9  12  1   
 15  12  13  1   
 16  12  14  1   
 17  12  15  1   
 18  15  16  1   
 19  15  17  1   
 20  15  18  1   
 21  18  19  1   
 22  18  20  1   
 23  21  22  1   
 24  21  23  ar  
 25  23  24  1   
 26  23  43  ar  
 27  24  25  1   
 28  24  26  1   
 29  24  27  1   
 30  27  28  1   
 31  27  29  1   
 32  27  36  1   
 33  29  30  1   
 34  29  31  1   
 35  29  32  1   
 36  32  33  1   
 37  32  34  1   
 38  32  35  1   
 39  36  37  1   
 40  36  38  1   
 41  36  39  1   
 42  39  40  1   
 43  39  41  1   
 44  39  42  1   
 45  43  44  1   
 46  43  45  ar  
 47  45  46  1   
@<TRIPOS>SUBSTRUCTURE
  1 ****  21 GROUP 4 **** **** 0
@<TRIPOS>PROPERTY_DATA
rseq	|	1
mseq	|	9
S	|	-6.71142530441284
rmsd_refine	|	1.46276760101318
E_conf	|	-130.068008422852
E_place	|	-61.905330657959
E_score1	|	-9.89542102813721
E_refine	|	-37.1316184997559
E_score2	|	-6.71142530441284
Field_1	|	8
Field_2	|	cc-2-21
E_orig	|	2.82318043708801
PLIF_pronum	|	1
PLIF_raw	|	[2,6787,438,7,0.6022906757]
FP:PLIF	|	4
PLIF_ligidx	|	2

# MOE 2020.09 (io_trps.svl 2020.11)

@<TRIPOS>MOLECULE
2XQJ
46 47 1 0 0 
SMALL
USER_CHARGES


@<TRIPOS>ATOM
  1 C      -19.5720   -39.2840   -23.5270 C.ar  1 <1>  -0.1710 
  2 O      -19.0770   -38.8480   -22.4240 O.3   1 <1>  -0.8290 
  3 C      -19.0720   -40.4450   -24.1680 C.ar  1 <1>  -0.1440 
  4 C      -17.9510   -41.2340   -23.5190 C.3   1 <1>   0.4870 
  5 H1     -18.0240   -42.2490   -23.8830 H     1 <1>   0.0800 
  6 H2     -18.1920   -41.3270   -22.4700 H     1 <1>   0.0800 
  7 N      -16.5480   -40.7090   -23.7000 N.4   1 <1>  -0.9590 
  8 H      -16.4440   -40.4480   -24.6680 H     1 <1>   0.4500 
  9 C      -15.4810   -41.7140   -23.3640 C.3   1 <1>   0.3430 
 10 H1     -15.8800   -42.6670   -23.0390 H     1 <1>   0.0800 
 11 H2     -14.8740   -41.9490   -24.2280 H     1 <1>   0.0800 
 12 C      -14.5790   -41.1360   -22.2690 C.3   1 <1>  -0.1600 
 13 H1     -14.9080   -41.5330   -21.3080 H     1 <1>   0.0800 
 14 H2     -13.5280   -41.3740   -22.4390 H     1 <1>   0.0800 
 15 C      -14.8370   -39.6320   -22.2920 C.3   1 <1>  -0.1600 
 16 H1     -14.1310   -39.1510   -22.9680 H     1 <1>   0.0800 
 17 H2     -14.7610   -39.1930   -21.2960 H     1 <1>   0.0800 
 18 C      -16.2490   -39.5010   -22.8590 C.3   1 <1>   0.3430 
 19 H1     -16.3750   -38.5640   -23.3840 H     1 <1>   0.0800 
 20 H2     -16.9280   -39.4390   -22.0190 H     1 <1>   0.0800 
 21 C      -19.6400   -40.8880   -25.3590 C.ar  1 <1>  -0.1500 
 22 H      -19.2390   -41.7450   -25.8350 H     1 <1>   0.1500 
 23 C      -20.7360   -40.2290   -25.9300 C.ar  1 <1>  -0.1440 
 24 C      -21.4180   -40.6600   -27.2200 C.3   1 <1>   0.4860 
 25 H1     -21.0110   -40.0440   -28.0100 H     1 <1>   0.0800 
 26 H2     -22.4380   -40.3130   -27.1530 H     1 <1>   0.0800 
 27 N      -21.4060   -42.1160   -27.6400 N.4   1 <1>  -0.9590 
 28 H      -20.4710   -42.2820   -27.9880 H     1 <1>   0.4500 
 29 C      -21.6290   -43.1090   -26.5200 C.3   1 <1>   0.3430 
 30 H1     -21.5000   -44.1180   -26.8840 H     1 <1>   0.0800 
 31 H2     -20.8600   -43.0200   -25.7670 H     1 <1>   0.0800 
 32 C      -22.9770   -43.0490   -25.7970 C.3   1 <1>  -0.2400 
 33 H1     -23.0030   -43.7940   -25.0030 H     1 <1>   0.0800 
 34 H2     -23.7950   -43.2630   -26.4850 H     1 <1>   0.0800 
 35 H3     -23.1270   -42.0710   -25.3420 H     1 <1>   0.0800 
 36 C      -22.3350   -42.3320   -28.8110 C.3   1 <1>   0.3430 
 37 H1     -23.3650   -42.3270   -28.4810 H     1 <1>   0.0800 
 38 H2     -22.2860   -41.4940   -29.4940 H     1 <1>   0.0800 
 39 C      -22.1180   -43.6010   -29.6390 C.3   1 <1>  -0.2400 
 40 H1     -21.1770   -43.5760   -30.1750 H     1 <1>   0.0800 
 41 H2     -22.1440   -44.4840   -29.0040 H     1 <1>   0.0800 
 42 H3     -22.8980   -43.6900   -30.3930 H     1 <1>   0.0800 
 43 C      -21.2260   -39.0860   -25.2970 C.ar  1 <1>  -0.1500 
 44 H      -22.0470   -38.5630   -25.7160 H     1 <1>   0.1500 
 45 C      -20.6570   -38.6160   -24.1280 C.ar  1 <1>  -0.1500 
 46 H      -21.0430   -37.7430   -23.6660 H     1 <1>   0.1500 
@<TRIPOS>BOND
  1   1   2  1   
  2   1   3  ar  
  3   1  45  ar  
  4   3   4  1   
  5   3  21  ar  
  6   4   5  1   
  7   4   6  1   
  8   4   7  1   
  9   7   8  1   
 10   7   9  1   
 11   7  18  1   
 12   9  10  1   
 13   9  11  1   
 14   9  12  1   
 15  12  13  1   
 16  12  14  1   
 17  12  15  1   
 18  15  16  1   
 19  15  17  1   
 20  15  18  1   
 21  18  19  1   
 22  18  20  1   
 23  21  22  1   
 24  21  23  ar  
 25  23  24  1   
 26  23  43  ar  
 27  24  25  1   
 28  24  26  1   
 29  24  27  1   
 30  27  28  1   
 31  27  29  1   
 32  27  36  1   
 33  29  30  1   
 34  29  31  1   
 35  29  32  1   
 36  32  33  1   
 37  32  34  1   
 38  32  35  1   
 39  36  37  1   
 40  36  38  1   
 41  36  39  1   
 42  39  40  1   
 43  39  41  1   
 44  39  42  1   
 45  43  44  1   
 46  43  45  ar  
 47  45  46  1   
@<TRIPOS>SUBSTRUCTURE
  1 ****  21 GROUP 4 **** **** 0
@<TRIPOS>PROPERTY_DATA
rseq	|	1
mseq	|	9
S	|	-6.55360984802246
rmsd_refine	|	0.596433103084564
E_conf	|	-128.838882446289
E_place	|	-65.9207153320312
E_score1	|	-10.5905323028564
E_refine	|	-35.7358589172363
E_score2	|	-6.55360984802246
Field_1	|	8
Field_2	|	cc-2-21
E_orig	|	1.80000615119934
PLIF_pronum	|	1
PLIF_raw	|	[[27,2,1,45,43,23,21,3],[1842,6787,1785,1785,1785,1785,1785,1785],[120,438,116,116,116,116,116,116],[1,7,10,10,10,10,10,10],[3.3,3.727013535,0.5,0.5,0.5,0.5,0.5,0.5]]
FP:PLIF	|	18 17 19 4 11
PLIF_ligidx	|	[[1,45,43,23,21,3],27,27,2,2]

# MOE 2020.09 (io_trps.svl 2020.11)

@<TRIPOS>MOLECULE
2XQJ
46 47 1 0 0 
SMALL
USER_CHARGES


@<TRIPOS>ATOM
  1 C      -22.2780   -38.5600   -22.9020 C.ar  1 <1>  -0.1710 
  2 O      -22.7290   -37.9480   -21.8670 O.3   1 <1>  -0.8290 
  3 C      -22.6910   -39.8740   -23.2090 C.ar  1 <1>  -0.1440 
  4 C      -23.6640   -40.5720   -22.2980 C.3   1 <1>   0.4870 
  5 H1     -23.9220   -41.5260   -22.7390 H     1 <1>   0.0800 
  6 H2     -24.5770   -40.0060   -22.3300 H     1 <1>   0.0800 
  7 N      -23.2330   -40.7250   -20.8820 N.4   1 <1>  -0.9590 
  8 H      -23.0610   -39.7840   -20.5430 H     1 <1>   0.4500 
  9 C      -22.0020   -41.5510   -20.7430 C.3   1 <1>   0.3430 
 10 H1     -21.3760   -41.5450   -21.6260 H     1 <1>   0.0800 
 11 H2     -21.3670   -41.1770   -19.9500 H     1 <1>   0.0800 
 12 C      -22.4230   -42.9790   -20.3920 C.3   1 <1>  -0.1600 
 13 H1     -22.2880   -43.6240   -21.2610 H     1 <1>   0.0800 
 14 H2     -21.8280   -43.3490   -19.5570 H     1 <1>   0.0800 
 15 C      -23.9140   -42.8980   -20.0260 C.3   1 <1>  -0.1600 
 16 H1     -24.1140   -43.3100   -19.0360 H     1 <1>   0.0800 
 17 H2     -24.4960   -43.4330   -20.7770 H     1 <1>   0.0800 
 18 C      -24.2740   -41.4130   -20.0770 C.3   1 <1>   0.3430 
 19 H1     -24.3040   -41.0290   -19.0660 H     1 <1>   0.0800 
 20 H2     -25.2780   -41.2760   -20.4560 H     1 <1>   0.0800 
 21 C      -22.2300   -40.5160   -24.3460 C.ar  1 <1>  -0.1500 
 22 H      -22.5650   -41.4970   -24.5660 H     1 <1>   0.1500 
 23 C      -21.3360   -39.8880   -25.2100 C.ar  1 <1>  -0.1440 
 24 C      -20.8880   -40.6070   -26.4580 C.3   1 <1>   0.4860 
 25 H1     -20.6920   -41.6330   -26.1790 H     1 <1>   0.0800 
 26 H2     -19.9150   -40.2390   -26.7450 H     1 <1>   0.0800 
 27 N      -21.8550   -40.5400   -27.6040 N.4   1 <1>  -0.9590 
 28 H      -22.7660   -40.3900   -27.1970 H     1 <1>   0.4500 
 29 C      -21.6050   -39.3690   -28.5070 C.3   1 <1>   0.3430 
 30 H1     -20.5460   -39.1680   -28.6040 H     1 <1>   0.0800 
 31 H2     -21.9110   -39.6090   -29.5160 H     1 <1>   0.0800 
 32 C      -22.3160   -38.0650   -28.1260 C.3   1 <1>  -0.2400 
 33 H1     -22.0060   -37.7100   -27.1470 H     1 <1>   0.0800 
 34 H2     -23.3940   -38.2120   -28.1160 H     1 <1>   0.0800 
 35 H3     -22.0870   -37.2830   -28.8490 H     1 <1>   0.0800 
 36 C      -21.9500   -41.8330   -28.3650 C.3   1 <1>   0.3430 
 37 H1     -22.4830   -41.6900   -29.2950 H     1 <1>   0.0800 
 38 H2     -20.9740   -42.1690   -28.6790 H     1 <1>   0.0800 
 39 C      -22.6210   -42.9940   -27.6280 C.3   1 <1>  -0.2400 
 40 H1     -22.5940   -43.8860   -28.2540 H     1 <1>   0.0800 
 41 H2     -23.6630   -42.7640   -27.4140 H     1 <1>   0.0800 
 42 H3     -22.1080   -43.2200   -26.6940 H     1 <1>   0.0800 
 43 C      -20.9020   -38.5950   -24.9070 C.ar  1 <1>  -0.1500 
 44 H      -20.2250   -38.0990   -25.5510 H     1 <1>   0.1500 
 45 C      -21.3620   -37.9390   -23.7770 C.ar  1 <1>  -0.1500 
 46 H      -21.0380   -36.9520   -23.5650 H     1 <1>   0.1500 
@<TRIPOS>BOND
  1   1   2  1   
  2   1   3  ar  
  3   1  45  ar  
  4   3   4  1   
  5   3  21  ar  
  6   4   5  1   
  7   4   6  1   
  8   4   7  1   
  9   7   8  1   
 10   7   9  1   
 11   7  18  1   
 12   9  10  1   
 13   9  11  1   
 14   9  12  1   
 15  12  13  1   
 16  12  14  1   
 17  12  15  1   
 18  15  16  1   
 19  15  17  1   
 20  15  18  1   
 21  18  19  1   
 22  18  20  1   
 23  21  22  1   
 24  21  23  ar  
 25  23  24  1   
 26  23  43  ar  
 27  24  25  1   
 28  24  26  1   
 29  24  27  1   
 30  27  28  1   
 31  27  29  1   
 32  27  36  1   
 33  29  30  1   
 34  29  31  1   
 35  29  32  1   
 36  32  33  1   
 37  32  34  1   
 38  32  35  1   
 39  36  37  1   
 40  36  38  1   
 41  36  39  1   
 42  39  40  1   
 43  39  41  1   
 44  39  42  1   
 45  43  44  1   
 46  43  45  ar  
 47  45  46  1   
@<TRIPOS>SUBSTRUCTURE
  1 ****  21 GROUP 4 **** **** 0
@<TRIPOS>PROPERTY_DATA
rseq	|	1
mseq	|	9
S	|	-6.50775051116943
rmsd_refine	|	2.24849534034729
E_conf	|	-130.779052734375
E_place	|	-47.5225219726562
E_score1	|	-10.1530628204346
E_refine	|	-31.819242477417
E_score2	|	-6.50775051116943
Field_1	|	8
Field_2	|	cc-2-21
E_orig	|	1.60000002384186
PLIF_pronum	|	1
PLIF_raw	|	[[2,2],[6783,6787],[438,438],[2,7],[0.7,0.5090579362]]
FP:PLIF	|	9 4
PLIF_ligidx	|	[2,2]

# MOE 2020.09 (io_trps.svl 2020.11)

@<TRIPOS>MOLECULE
2XQJ
44 46 1 0 0 
SMALL
USER_CHARGES


@<TRIPOS>ATOM
  1 C      -22.8940   -39.6330   -20.8990 C.ar  1 <1>  -0.1710 
  2 O      -23.3830   -40.2560   -19.8880 O.3   1 <1>  -0.8290 
  3 C      -21.6740   -40.0310   -21.4960 C.ar  1 <1>  -0.1440 
  4 C      -20.8970   -41.1760   -20.8950 C.3   1 <1>   0.4870 
  5 H1     -20.5810   -40.8620   -19.9090 H     1 <1>   0.0800 
  6 H2     -19.9710   -41.2820   -21.4430 H     1 <1>   0.0800 
  7 N      -21.6280   -42.4770   -20.8190 N.4   1 <1>  -0.9590 
  8 H      -22.4960   -42.2850   -20.3310 H     1 <1>   0.4500 
  9 C      -20.8370   -43.5120   -20.1110 C.3   1 <1>   0.3430 
 10 H1     -20.1590   -43.1090   -19.3730 H     1 <1>   0.0800 
 11 H2     -21.4800   -44.1740   -19.5510 H     1 <1>   0.0800 
 12 C      -20.0860   -44.3270   -21.1680 C.3   1 <1>  -0.1600 
 13 H1     -19.0880   -43.9080   -21.2970 H     1 <1>   0.0800 
 14 H2     -20.0100   -45.3770   -20.8900 H     1 <1>   0.0800 
 15 C      -20.8830   -44.1390   -22.4660 C.3   1 <1>  -0.1600 
 16 H1     -21.3790   -45.0650   -22.7560 H     1 <1>   0.0800 
 17 H2     -20.2240   -43.8040   -23.2680 H     1 <1>   0.0800 
 18 C      -21.9300   -43.0620   -22.1580 C.3   1 <1>   0.3430 
 19 H1     -22.9080   -43.5260   -22.1710 H     1 <1>   0.0800 
 20 H2     -21.9630   -42.3260   -22.9500 H     1 <1>   0.0800 
 21 C      -21.1810   -39.3620   -22.6080 C.ar  1 <1>  -0.1500 
 22 H      -20.2760   -39.6830   -23.0540 H     1 <1>   0.1500 
 23 C      -21.8600   -38.2680   -23.1430 C.ar  1 <1>  -0.1440 
 24 C      -21.3660   -37.5650   -24.3810 C.3   1 <1>   0.4860 
 25 H1     -20.2940   -37.6850   -24.4520 H     1 <1>   0.0800 
 26 H2     -21.5010   -36.5020   -24.2250 H     1 <1>   0.0800 
 27 N      -22.0590   -38.0180   -25.6260 N.4   1 <1>  -0.9590 
 28 H      -23.0230   -38.1930   -25.3710 H     1 <1>   0.4500 
 29 C      -22.0910   -37.0200   -26.7240 C.3   1 <1>   0.3430 
 30 H1     -22.8880   -36.2970   -26.6210 H     1 <1>   0.0800 
 31 H2     -21.1790   -36.4380   -26.7530 H     1 <1>   0.0800 
 32 C      -22.2150   -37.7850   -28.0360 C.3   1 <1>  -0.1600 
 33 H1     -23.2710   -37.9570   -28.2410 H     1 <1>   0.0800 
 34 H2     -21.7560   -37.2430   -28.8600 H     1 <1>   0.0800 
 35 C      -21.5370   -39.1290   -27.7650 C.3   1 <1>  -0.1600 
 36 H1     -22.0710   -39.9470   -28.2500 H     1 <1>   0.0800 
 37 H2     -20.5090   -39.0960   -28.1200 H     1 <1>   0.0800 
 38 C      -21.5430   -39.2860   -26.2380 C.3   1 <1>   0.3430 
 39 H1     -20.5430   -39.5280   -25.9060 H     1 <1>   0.0800 
 40 H2     -22.1430   -40.1430   -25.9610 H     1 <1>   0.0800 
 41 C      -23.0440   -37.8480   -22.5410 C.ar  1 <1>  -0.1500 
 42 H      -23.5620   -37.0090   -22.9280 H     1 <1>   0.1500 
 43 C      -23.5600   -38.5180   -21.4460 C.ar  1 <1>  -0.1500 
 44 H      -24.4680   -38.1940   -21.0070 H     1 <1>   0.1500 
@<TRIPOS>BOND
  1   1   2  1   
  2   1   3  ar  
  3   1  43  ar  
  4   3   4  1   
  5   3  21  ar  
  6   4   5  1   
  7   4   6  1   
  8   4   7  1   
  9   7   8  1   
 10   7   9  1   
 11   7  18  1   
 12   9  10  1   
 13   9  11  1   
 14   9  12  1   
 15  12  13  1   
 16  12  14  1   
 17  12  15  1   
 18  15  16  1   
 19  15  17  1   
 20  15  18  1   
 21  18  19  1   
 22  18  20  1   
 23  21  22  1   
 24  21  23  ar  
 25  23  24  1   
 26  23  41  ar  
 27  24  25  1   
 28  24  26  1   
 29  24  27  1   
 30  27  28  1   
 31  27  29  1   
 32  27  38  1   
 33  29  30  1   
 34  29  31  1   
 35  29  32  1   
 36  32  33  1   
 37  32  34  1   
 38  32  35  1   
 39  35  36  1   
 40  35  37  1   
 41  35  38  1   
 42  38  39  1   
 43  38  40  1   
 44  41  42  1   
 45  41  43  ar  
 46  43  44  1   
@<TRIPOS>SUBSTRUCTURE
  1 ****  21 GROUP 4 **** **** 0
@<TRIPOS>PROPERTY_DATA
rseq	|	1
mseq	|	10
S	|	-6.72191667556763
rmsd_refine	|	1.57623589038849
E_conf	|	-97.098258972168
E_place	|	-61.0410079956055
E_score1	|	-9.81600856781006
E_refine	|	-33.7285575866699
E_score2	|	-6.72191667556763
Field_1	|	9
Field_2	|	cc-2-68
E_orig	|	1.39999997615814
PLIF_pronum	|	1
PLIF_raw	|	[[],[],[],[],[]]
FP:PLIF	|	
PLIF_ligidx	|	[]

# MOE 2020.09 (io_trps.svl 2020.11)

@<TRIPOS>MOLECULE
2XQJ
44 46 1 0 0 
SMALL
USER_CHARGES


@<TRIPOS>ATOM
  1 C      -20.1120   -39.0680   -22.8960 C.ar  1 <1>  -0.1710 
  2 O      -21.1940   -38.4150   -22.6810 O.3   1 <1>  -0.8290 
  3 C      -19.9860   -40.4660   -22.6610 C.ar  1 <1>  -0.1440 
  4 C      -21.1200   -41.3440   -22.1410 C.3   1 <1>   0.4870 
  5 H1     -20.8000   -41.7740   -21.2010 H     1 <1>   0.0800 
  6 H2     -21.1660   -42.2010   -22.7990 H     1 <1>   0.0800 
  7 N      -22.4840   -40.7350   -22.0050 N.4   1 <1>  -0.9590 
  8 H      -22.5040   -39.9650   -22.6680 H     1 <1>   0.4500 
  9 C      -22.7700   -40.1350   -20.6670 C.3   1 <1>   0.3430 
 10 H1     -22.1670   -40.5920   -19.8940 H     1 <1>   0.0800 
 11 H2     -22.5450   -39.0790   -20.6180 H     1 <1>   0.0800 
 12 C      -24.2420   -40.3780   -20.3420 C.3   1 <1>  -0.1600 
 13 H1     -24.4090   -40.5180   -19.2740 H     1 <1>   0.0800 
 14 H2     -24.8160   -39.5240   -20.7050 H     1 <1>   0.0800 
 15 C      -24.6160   -41.6180   -21.1510 C.3   1 <1>  -0.1600 
 16 H1     -25.6450   -41.5670   -21.5070 H     1 <1>   0.0800 
 17 H2     -24.4700   -42.5090   -20.5390 H     1 <1>   0.0800 
 18 C      -23.6210   -41.6550   -22.3160 C.3   1 <1>   0.3430 
 19 H1     -24.1260   -41.3600   -23.2260 H     1 <1>   0.0800 
 20 H2     -23.3070   -42.6750   -22.4920 H     1 <1>   0.0800 
 21 C      -18.7720   -41.0950   -22.9100 C.ar  1 <1>  -0.1500 
 22 H      -18.6820   -42.1370   -22.7370 H     1 <1>   0.1500 
 23 C      -17.6640   -40.3880   -23.3760 C.ar  1 <1>  -0.1440 
 24 C      -16.3320   -41.0710   -23.5860 C.3   1 <1>   0.4860 
 25 H1     -15.8330   -40.5330   -24.3790 H     1 <1>   0.0800 
 26 H2     -16.5150   -42.0450   -24.0190 H     1 <1>   0.0800 
 27 N      -15.4320   -41.1760   -22.3750 N.4   1 <1>  -0.9590 
 28 H      -15.6910   -42.0160   -21.8750 H     1 <1>   0.4500 
 29 C      -13.9790   -41.2680   -22.7510 C.3   1 <1>   0.3430 
 30 H1     -13.5180   -42.1910   -22.4250 H     1 <1>   0.0800 
 31 H2     -13.8370   -41.2620   -23.8230 H     1 <1>   0.0800 
 32 C      -13.2260   -40.0780   -22.1430 C.3   1 <1>  -0.1600 
 33 H1     -12.6100   -40.4360   -21.3180 H     1 <1>   0.0800 
 34 H2     -12.6050   -39.5750   -22.8820 H     1 <1>   0.0800 
 35 C      -14.2990   -39.1340   -21.6080 C.3   1 <1>  -0.1600 
 36 H1     -14.5240   -38.3770   -22.3610 H     1 <1>   0.0800 
 37 H2     -13.9940   -38.6580   -20.6760 H     1 <1>   0.0800 
 38 C      -15.5270   -40.0180   -21.4200 C.3   1 <1>   0.3430 
 39 H1     -16.4320   -39.4340   -21.5110 H     1 <1>   0.0800 
 40 H2     -15.5370   -40.3690   -20.3980 H     1 <1>   0.0800 
 41 C      -17.7900   -39.0220   -23.6190 C.ar  1 <1>  -0.1500 
 42 H      -16.9610   -38.4690   -23.9740 H     1 <1>   0.1500 
 43 C      -18.9890   -38.3740   -23.3910 C.ar  1 <1>  -0.1500 
 44 H      -19.0750   -37.3360   -23.5850 H     1 <1>   0.1500 
@<TRIPOS>BOND
  1   1   2  1   
  2   1   3  ar  
  3   1  43  ar  
  4   3   4  1   
  5   3  21  ar  
  6   4   5  1   
  7   4   6  1   
  8   4   7  1   
  9   7   8  1   
 10   7   9  1   
 11   7  18  1   
 12   9  10  1   
 13   9  11  1   
 14   9  12  1   
 15  12  13  1   
 16  12  14  1   
 17  12  15  1   
 18  15  16  1   
 19  15  17  1   
 20  15  18  1   
 21  18  19  1   
 22  18  20  1   
 23  21  22  1   
 24  21  23  ar  
 25  23  24  1   
 26  23  41  ar  
 27  24  25  1   
 28  24  26  1   
 29  24  27  1   
 30  27  28  1   
 31  27  29  1   
 32  27  38  1   
 33  29  30  1   
 34  29  31  1   
 35  29  32  1   
 36  32  33  1   
 37  32  34  1   
 38  32  35  1   
 39  35  36  1   
 40  35  37  1   
 41  35  38  1   
 42  38  39  1   
 43  38  40  1   
 44  41  42  1   
 45  41  43  ar  
 46  43  44  1   
@<TRIPOS>SUBSTRUCTURE
  1 ****   3 GROUP 4 **** **** 0
@<TRIPOS>PROPERTY_DATA
rseq	|	1
mseq	|	10
S	|	-6.64492797851562
rmsd_refine	|	2.15393853187561
E_conf	|	-92.4667892456055
E_place	|	-51.5085182189941
E_score1	|	-9.8245153427124
E_refine	|	-34.2068634033203
E_score2	|	-6.64492797851562
Field_1	|	9
Field_2	|	cc-2-68
E_orig	|	1.48630833625793
PLIF_pronum	|	1
PLIF_raw	|	[2,6787,438,7,1.775545325]
FP:PLIF	|	4
PLIF_ligidx	|	2

# MOE 2020.09 (io_trps.svl 2020.11)

@<TRIPOS>MOLECULE
2XQJ
44 46 1 0 0 
SMALL
USER_CHARGES


@<TRIPOS>ATOM
  1 C      -18.2300   -38.9770   -23.8030 C.ar  1 <1>  -0.1710 
  2 O      -17.2320   -38.2440   -24.1510 O.3   1 <1>  -0.8290 
  3 C      -18.0780   -40.3020   -23.3110 C.ar  1 <1>  -0.1440 
  4 C      -16.7180   -40.9750   -23.1850 C.3   1 <1>   0.4870 
  5 H1     -16.5640   -41.5420   -24.0930 H     1 <1>   0.0800 
  6 H2     -16.7940   -41.7390   -22.4240 H     1 <1>   0.0800 
  7 N      -15.5420   -40.0870   -22.9240 N.4   1 <1>  -0.9590 
  8 H      -15.5560   -39.4060   -23.6740 H     1 <1>   0.4500 
  9 C      -14.2040   -40.7460   -22.9120 C.3   1 <1>   0.3430 
 10 H1     -14.2540   -41.7380   -22.4840 H     1 <1>   0.0800 
 11 H2     -13.7830   -40.8890   -23.8970 H     1 <1>   0.0800 
 12 C      -13.2700   -39.8940   -22.0460 C.3   1 <1>  -0.1600 
 13 H1     -12.7950   -40.5190   -21.2910 H     1 <1>   0.0800 
 14 H2     -12.5130   -39.4180   -22.6680 H     1 <1>   0.0800 
 15 C      -14.1610   -38.8290   -21.3930 C.3   1 <1>  -0.1600 
 16 H1     -13.9990   -37.8720   -21.8910 H     1 <1>   0.0800 
 17 H2     -13.9630   -38.7260   -20.3280 H     1 <1>   0.0800 
 18 C      -15.5910   -39.2830   -21.6770 C.3   1 <1>   0.3430 
 19 H1     -16.2670   -38.4410   -21.7300 H     1 <1>   0.0800 
 20 H2     -15.9360   -39.8770   -20.8410 H     1 <1>   0.0800 
 21 C      -19.2000   -41.0470   -22.9730 C.ar  1 <1>  -0.1500 
 22 H      -19.0760   -42.0390   -22.6210 H     1 <1>   0.1500 
 23 C      -20.4910   -40.5330   -23.1000 C.ar  1 <1>  -0.1440 
 24 C      -21.6730   -41.4200   -22.7490 C.3   1 <1>   0.4860 
 25 H1     -21.3390   -42.1100   -21.9860 H     1 <1>   0.0800 
 26 H2     -21.8550   -42.0610   -23.6020 H     1 <1>   0.0800 
 27 N      -22.9470   -40.7420   -22.3200 N.4   1 <1>  -0.9590 
 28 H      -23.2790   -40.1900   -23.1000 H     1 <1>   0.4500 
 29 C      -24.0450   -41.6960   -21.9570 C.3   1 <1>   0.3430 
 30 H1     -24.7650   -41.8140   -22.7540 H     1 <1>   0.0800 
 31 H2     -23.6750   -42.6970   -21.7750 H     1 <1>   0.0800 
 32 C      -24.7490   -41.1950   -20.6890 C.3   1 <1>  -0.1600 
 33 H1     -25.8230   -41.0990   -20.8480 H     1 <1>   0.0800 
 34 H2     -24.5530   -41.8950   -19.8750 H     1 <1>   0.0800 
 35 C      -24.1160   -39.8380   -20.3720 C.3   1 <1>  -0.1600 
 36 H1     -23.9490   -39.7050   -19.3030 H     1 <1>   0.0800 
 37 H2     -24.7560   -39.0410   -20.7540 H     1 <1>   0.0800 
 38 C      -22.8070   -39.8180   -21.1550 C.3   1 <1>   0.3430 
 39 H1     -22.0130   -40.1400   -20.4950 H     1 <1>   0.0800 
 40 H2     -22.5470   -38.8060   -21.4370 H     1 <1>   0.0800 
 41 C      -20.6450   -39.2320   -23.5840 C.ar  1 <1>  -0.1500 
 42 H      -21.6130   -38.8180   -23.7050 H     1 <1>   0.1500 
 43 C      -19.5420   -38.4660   -23.9200 C.ar  1 <1>  -0.1500 
 44 H      -19.6760   -37.4800   -24.2830 H     1 <1>   0.1500 
@<TRIPOS>BOND
  1   1   2  1   
  2   1   3  ar  
  3   1  43  ar  
  4   3   4  1   
  5   3  21  ar  
  6   4   5  1   
  7   4   6  1   
  8   4   7  1   
  9   7   8  1   
 10   7   9  1   
 11   7  18  1   
 12   9  10  1   
 13   9  11  1   
 14   9  12  1   
 15  12  13  1   
 16  12  14  1   
 17  12  15  1   
 18  15  16  1   
 19  15  17  1   
 20  15  18  1   
 21  18  19  1   
 22  18  20  1   
 23  21  22  1   
 24  21  23  ar  
 25  23  24  1   
 26  23  41  ar  
 27  24  25  1   
 28  24  26  1   
 29  24  27  1   
 30  27  28  1   
 31  27  29  1   
 32  27  38  1   
 33  29  30  1   
 34  29  31  1   
 35  29  32  1   
 36  32  33  1   
 37  32  34  1   
 38  32  35  1   
 39  35  36  1   
 40  35  37  1   
 41  35  38  1   
 42  38  39  1   
 43  38  40  1   
 44  41  42  1   
 45  41  43  ar  
 46  43  44  1   
@<TRIPOS>SUBSTRUCTURE
  1 ****  21 GROUP 4 **** **** 0
@<TRIPOS>PROPERTY_DATA
rseq	|	1
mseq	|	10
S	|	-6.57699298858643
rmsd_refine	|	1.70031535625458
E_conf	|	-94.0520553588867
E_place	|	-63.6498947143555
E_score1	|	-9.92644309997559
E_refine	|	-33.5676383972168
E_score2	|	-6.57699298858643
Field_1	|	9
Field_2	|	cc-2-68
E_orig	|	1.00025904178619
PLIF_pronum	|	1
PLIF_raw	|	[[],[],[],[],[]]
FP:PLIF	|	
PLIF_ligidx	|	[]

# MOE 2020.09 (io_trps.svl 2020.11)

@<TRIPOS>MOLECULE
2XQJ
44 46 1 0 0 
SMALL
USER_CHARGES


@<TRIPOS>ATOM
  1 C      -18.2620   -38.6270   -23.6950 C.ar  1 <1>  -0.1710 
  2 O      -17.2460   -38.0700   -24.2520 O.3   1 <1>  -0.8290 
  3 C      -18.1990   -39.9340   -23.1460 C.ar  1 <1>  -0.1440 
  4 C      -16.9150   -40.7490   -23.1980 C.3   1 <1>   0.4870 
  5 H1     -16.8740   -41.2240   -24.1690 H     1 <1>   0.0800 
  6 H2     -17.0170   -41.5780   -22.5120 H     1 <1>   0.0800 
  7 N      -15.6520   -39.9860   -22.9290 N.4   1 <1>  -0.9590 
  8 H      -15.6060   -39.2940   -23.6680 H     1 <1>   0.4500 
  9 C      -14.3760   -40.7580   -22.9320 C.3   1 <1>   0.3430 
 10 H1     -14.5050   -41.7380   -22.4920 H     1 <1>   0.0800 
 11 H2     -13.9830   -40.9480   -23.9210 H     1 <1>   0.0800 
 12 C      -13.3590   -39.9800   -22.0870 C.3   1 <1>  -0.1600 
 13 H1     -12.5860   -39.5530   -22.7240 H     1 <1>   0.0800 
 14 H2     -12.9110   -40.6410   -21.3470 H     1 <1>   0.0800 
 15 C      -14.1550   -38.8560   -21.4100 C.3   1 <1>  -0.1600 
 16 H1     -13.9320   -37.9100   -21.9050 H     1 <1>   0.0800 
 17 H2     -13.9320   -38.7750   -20.3480 H     1 <1>   0.0800 
 18 C      -15.6190   -39.2010   -21.6710 C.3   1 <1>   0.3430 
 19 H1     -16.2340   -38.3120   -21.6960 H     1 <1>   0.0800 
 20 H2     -15.9890   -39.7820   -20.8370 H     1 <1>   0.0800 
 21 C      -19.3220   -40.4890   -22.5500 C.ar  1 <1>  -0.1500 
 22 H      -19.2720   -41.4720   -22.1570 H     1 <1>   0.1500 
 23 C      -20.5190   -39.7800   -22.4480 C.ar  1 <1>  -0.1440 
 24 C      -21.6980   -40.3990   -21.7310 C.3   1 <1>   0.4860 
 25 H1     -21.9060   -39.7870   -20.8640 H     1 <1>   0.0800 
 26 H2     -21.3650   -41.3360   -21.3030 H     1 <1>   0.0800 
 27 N      -22.9430   -40.6070   -22.5420 N.4   1 <1>  -0.9590 
 28 H      -23.2460   -39.7070   -22.8910 H     1 <1>   0.4500 
 29 C      -22.7480   -41.5260   -23.7060 C.3   1 <1>   0.3430 
 30 H1     -23.3060   -41.1820   -24.5670 H     1 <1>   0.0800 
 31 H2     -21.7220   -41.5870   -24.0470 H     1 <1>   0.0800 
 32 C      -23.2720   -42.9090   -23.3210 C.3   1 <1>  -0.1600 
 33 H1     -23.7480   -43.4030   -24.1690 H     1 <1>   0.0800 
 34 H2     -22.4410   -43.5150   -22.9560 H     1 <1>   0.0800 
 35 C      -24.2620   -42.6650   -22.1790 C.3   1 <1>  -0.1600 
 36 H1     -24.0830   -43.3570   -21.3560 H     1 <1>   0.0800 
 37 H2     -25.2830   -42.7740   -22.5410 H     1 <1>   0.0800 
 38 C      -24.0380   -41.2190   -21.7240 C.3   1 <1>   0.3430 
 39 H1     -23.8220   -41.2040   -20.6640 H     1 <1>   0.0800 
 40 H2     -24.9670   -40.6760   -21.8200 H     1 <1>   0.0800 
 41 C      -20.5900   -38.4980   -22.9900 C.ar  1 <1>  -0.1500 
 42 H      -21.4920   -37.9450   -22.9300 H     1 <1>   0.1500 
 43 C      -19.4870   -37.9310   -23.6060 C.ar  1 <1>  -0.1500 
 44 H      -19.5550   -36.9540   -24.0140 H     1 <1>   0.1500 
@<TRIPOS>BOND
  1   1   2  1   
  2   1   3  ar  
  3   1  43  ar  
  4   3   4  1   
  5   3  21  ar  
  6   4   5  1   
  7   4   6  1   
  8   4   7  1   
  9   7   8  1   
 10   7   9  1   
 11   7  18  1   
 12   9  10  1   
 13   9  11  1   
 14   9  12  1   
 15  12  13  1   
 16  12  14  1   
 17  12  15  1   
 18  15  16  1   
 19  15  17  1   
 20  15  18  1   
 21  18  19  1   
 22  18  20  1   
 23  21  22  1   
 24  21  23  ar  
 25  23  24  1   
 26  23  41  ar  
 27  24  25  1   
 28  24  26  1   
 29  24  27  1   
 30  27  28  1   
 31  27  29  1   
 32  27  38  1   
 33  29  30  1   
 34  29  31  1   
 35  29  32  1   
 36  32  33  1   
 37  32  34  1   
 38  32  35  1   
 39  35  36  1   
 40  35  37  1   
 41  35  38  1   
 42  38  39  1   
 43  38  40  1   
 44  41  42  1   
 45  41  43  ar  
 46  43  44  1   
@<TRIPOS>SUBSTRUCTURE
  1 ****  21 GROUP 4 **** **** 0
@<TRIPOS>PROPERTY_DATA
rseq	|	1
mseq	|	10
S	|	-6.45468330383301
rmsd_refine	|	1.15633392333984
E_conf	|	-95.2314758300781
E_place	|	-49.6901779174805
E_score1	|	-9.77636241912842
E_refine	|	-32.109619140625
E_score2	|	-6.45468330383301
Field_1	|	9
Field_2	|	cc-2-68
E_orig	|	1
PLIF_pronum	|	1
PLIF_raw	|	[2,1790,117,4,1.2]
FP:PLIF	|	20
PLIF_ligidx	|	2

# MOE 2020.09 (io_trps.svl 2020.11)

@<TRIPOS>MOLECULE
2XQJ
44 46 1 0 0 
SMALL
USER_CHARGES


@<TRIPOS>ATOM
  1 C      -18.5340   -38.6830   -23.9010 C.ar  1 <1>  -0.1710 
  2 O      -17.3700   -38.2080   -24.1780 O.3   1 <1>  -0.8290 
  3 C      -18.7650   -40.0660   -23.6540 C.ar  1 <1>  -0.1440 
  4 C      -17.6650   -41.1170   -23.6730 C.3   1 <1>   0.4870 
  5 H1     -17.7680   -41.6560   -24.6050 H     1 <1>   0.0800 
  6 H2     -17.9150   -41.8600   -22.9270 H     1 <1>   0.0800 
  7 N      -16.2480   -40.6640   -23.4970 N.4   1 <1>  -0.9590 
  8 H      -16.1050   -39.9490   -24.2000 H     1 <1>   0.4500 
  9 C      -15.2190   -41.7280   -23.6740 C.3   1 <1>   0.3430 
 10 H1     -15.5670   -42.6750   -23.2820 H     1 <1>   0.0800 
 11 H2     -14.9590   -41.9310   -24.7030 H     1 <1>   0.0800 
 12 C      -14.0000   -41.3030   -22.8650 C.3   1 <1>  -0.1600 
 13 H1     -13.3930   -42.1530   -22.5610 H     1 <1>   0.0800 
 14 H2     -13.4040   -40.6150   -23.4630 H     1 <1>   0.0800 
 15 C      -14.5940   -40.5410   -21.6820 C.3   1 <1>  -0.1600 
 16 H1     -13.9330   -39.7430   -21.3390 H     1 <1>   0.0800 
 17 H2     -14.8000   -41.2420   -20.8760 H     1 <1>   0.0800 
 18 C      -15.9340   -39.9990   -22.1910 C.3   1 <1>   0.3430 
 19 H1     -15.8720   -38.9240   -22.2980 H     1 <1>   0.0800 
 20 H2     -16.6970   -40.1560   -21.4420 H     1 <1>   0.0800 
 21 C      -20.0580   -40.5190   -23.4270 C.ar  1 <1>  -0.1500 
 22 H      -20.2240   -41.5540   -23.2700 H     1 <1>   0.1500 
 23 C      -21.1490   -39.6490   -23.4160 C.ar  1 <1>  -0.1440 
 24 C      -22.5480   -40.1840   -23.2020 C.3   1 <1>   0.4860 
 25 H1     -22.7580   -40.8700   -24.0130 H     1 <1>   0.0800 
 26 H2     -23.2520   -39.3780   -23.3620 H     1 <1>   0.0800 
 27 N      -22.7710   -40.8450   -21.8700 N.4   1 <1>  -0.9590 
 28 H      -21.9940   -41.4720   -21.7100 H     1 <1>   0.4500 
 29 C      -22.8270   -39.8700   -20.7380 C.3   1 <1>   0.3430 
 30 H1     -22.1500   -40.1530   -19.9430 H     1 <1>   0.0800 
 31 H2     -22.5310   -38.8700   -21.0230 H     1 <1>   0.0800 
 32 C      -24.2490   -39.8500   -20.1850 C.3   1 <1>  -0.1600 
 33 H1     -24.2600   -39.7020   -19.1040 H     1 <1>   0.0800 
 34 H2     -24.7940   -39.0470   -20.6830 H     1 <1>   0.0800 
 35 C      -24.8480   -41.1960   -20.5850 C.3   1 <1>  -0.1600 
 36 H1     -25.9100   -41.1080   -20.8170 H     1 <1>   0.0800 
 37 H2     -24.6960   -41.9160   -19.7800 H     1 <1>   0.0800 
 38 C      -24.0400   -41.6430   -21.8070 C.3   1 <1>   0.3430 
 39 H1     -24.6420   -41.4990   -22.6920 H     1 <1>   0.0800 
 40 H2     -23.8680   -42.7110   -21.7640 H     1 <1>   0.0800 
 41 C      -20.9240   -38.2890   -23.6180 C.ar  1 <1>  -0.1500 
 42 H      -21.7370   -37.6090   -23.6030 H     1 <1>   0.1500 
 43 C      -19.6450   -37.8120   -23.8530 C.ar  1 <1>  -0.1500 
 44 H      -19.4940   -36.7760   -24.0140 H     1 <1>   0.1500 
@<TRIPOS>BOND
  1   1   2  1   
  2   1   3  ar  
  3   1  43  ar  
  4   3   4  1   
  5   3  21  ar  
  6   4   5  1   
  7   4   6  1   
  8   4   7  1   
  9   7   8  1   
 10   7   9  1   
 11   7  18  1   
 12   9  10  1   
 13   9  11  1   
 14   9  12  1   
 15  12  13  1   
 16  12  14  1   
 17  12  15  1   
 18  15  16  1   
 19  15  17  1   
 20  15  18  1   
 21  18  19  1   
 22  18  20  1   
 23  21  22  1   
 24  21  23  ar  
 25  23  24  1   
 26  23  41  ar  
 27  24  25  1   
 28  24  26  1   
 29  24  27  1   
 30  27  28  1   
 31  27  29  1   
 32  27  38  1   
 33  29  30  1   
 34  29  31  1   
 35  29  32  1   
 36  32  33  1   
 37  32  34  1   
 38  32  35  1   
 39  35  36  1   
 40  35  37  1   
 41  35  38  1   
 42  38  39  1   
 43  38  40  1   
 44  41  42  1   
 45  41  43  ar  
 46  43  44  1   
@<TRIPOS>SUBSTRUCTURE
  1 ****  21 GROUP 4 **** **** 0
@<TRIPOS>PROPERTY_DATA
rseq	|	1
mseq	|	10
S	|	-6.41572093963623
rmsd_refine	|	1.11128389835358
E_conf	|	-94.0395431518555
E_place	|	-75.9921798706055
E_score1	|	-10.0337524414062
E_refine	|	-33.6017646789551
E_score2	|	-6.41572093963623
Field_1	|	9
Field_2	|	cc-2-68
E_orig	|	0.666466295719147
PLIF_pronum	|	1
PLIF_raw	|	[[],[],[],[],[]]
FP:PLIF	|	
PLIF_ligidx	|	[]

# MOE 2020.09 (io_trps.svl 2020.11)

@<TRIPOS>MOLECULE
2XQJ
47 49 1 0 0 
SMALL
USER_CHARGES


@<TRIPOS>ATOM
  1 C      -20.2240   -38.9450   -23.1250 C.ar  1 <1>  -0.1710 
  2 O      -19.4730   -38.0010   -23.5770 O.3   1 <1>  -0.8290 
  3 C      -21.5660   -39.0980   -23.5450 C.ar  1 <1>  -0.1440 
  4 C      -22.1510   -38.1220   -24.5380 C.3   1 <1>   0.4870 
  5 H1     -22.1990   -37.1540   -24.0560 H     1 <1>   0.0800 
  6 H2     -23.1860   -38.3870   -24.7010 H     1 <1>   0.0800 
  7 N      -21.4060   -38.0390   -25.8310 N.4   1 <1>  -0.9590 
  8 H      -20.4600   -37.7750   -25.5790 H     1 <1>   0.4500 
  9 C      -21.9470   -37.0210   -26.7770 C.3   1 <1>   0.3430 
 10 H1     -22.8190   -36.5070   -26.3980 H     1 <1>   0.0800 
 11 H2     -21.2270   -36.2360   -26.9610 H     1 <1>   0.0800 
 12 C      -22.2830   -37.7110   -28.1020 C.3   1 <1>  -0.1600 
 13 H1     -23.3480   -37.9340   -28.1230 H     1 <1>   0.0800 
 14 H2     -22.0110   -37.0870   -28.9530 H     1 <1>   0.0800 
 15 C      -21.5050   -39.0250   -28.0720 C.3   1 <1>  -0.1600 
 16 H1     -20.5220   -38.8730   -28.5170 H     1 <1>   0.0800 
 17 H2     -22.0300   -39.8260   -28.5910 H     1 <1>   0.0800 
 18 C      -21.3300   -39.3290   -26.5860 C.3   1 <1>   0.3430 
 19 H1     -20.4130   -39.8770   -26.4110 H     1 <1>   0.0800 
 20 H2     -22.1190   -40.0030   -26.2830 H     1 <1>   0.0800 
 21 C      -22.3430   -40.1450   -23.0690 C.ar  1 <1>  -0.1500 
 22 H      -23.3450   -40.2330   -23.3960 H     1 <1>   0.1500 
 23 C      -21.8250   -41.0780   -22.1690 C.ar  1 <1>  -0.1440 
 24 C      -22.6500   -42.2480   -21.6580 C.3   1 <1>   0.4860 
 25 H1     -23.5570   -41.8330   -21.2400 H     1 <1>   0.0800 
 26 H2     -22.1380   -42.6410   -20.7900 H     1 <1>   0.0800 
 27 N      -22.9860   -43.3790   -22.6240 N.4   1 <1>  -0.9590 
 28 H      -23.5160   -44.0590   -22.0940 H     1 <1>   0.4500 
 29 C      -21.8360   -44.1240   -23.2480 C.3   1 <1>   0.4230 
 30 C      -20.5560   -44.3240   -22.4250 C.3   1 <1>  -0.2400 
 31 H1     -20.7930   -44.6580   -21.4150 H     1 <1>   0.0800 
 32 H2     -19.9640   -43.4150   -22.3710 H     1 <1>   0.0800 
 33 H3     -19.9350   -45.0880   -22.8940 H     1 <1>   0.0800 
 34 C      -21.6080   -43.5080   -24.6320 C.3   1 <1>  -0.1600 
 35 H1     -20.8990   -42.6820   -24.5510 H     1 <1>   0.0800 
 36 H2     -21.2370   -44.2500   -25.3390 H     1 <1>   0.0800 
 37 C      -22.9750   -42.9590   -25.0540 C.3   1 <1>  -0.1600 
 38 H1     -23.4350   -43.6080   -25.7990 H     1 <1>   0.0800 
 39 H2     -22.8720   -41.9490   -25.4500 H     1 <1>   0.0800 
 40 C      -23.8340   -42.9590   -23.7830 C.3   1 <1>   0.3430 
 41 H1     -24.6600   -43.6420   -23.9350 H     1 <1>   0.0800 
 42 H2     -24.3020   -41.9950   -23.6440 H     1 <1>   0.0800 
 43 C      -20.5150   -40.9090   -21.7210 C.ar  1 <1>  -0.1500 
 44 H      -20.1160   -41.5860   -21.0130 H     1 <1>   0.1500 
 45 C      -19.7250   -39.8730   -22.1900 C.ar  1 <1>  -0.1500 
 46 H      -18.7280   -39.7700   -21.8500 H     1 <1>   0.1500 
 47 H      -22.1880   -45.1270   -23.4520 H     1 <1>   0.0800 
@<TRIPOS>BOND
  1   1   2  1   
  2   1   3  ar  
  3   1  45  ar  
  4   3   4  1   
  5   3  21  ar  
  6   4   5  1   
  7   4   6  1   
  8   4   7  1   
  9   7   8  1   
 10   7   9  1   
 11   7  18  1   
 12   9  10  1   
 13   9  11  1   
 14   9  12  1   
 15  12  13  1   
 16  12  14  1   
 17  12  15  1   
 18  15  16  1   
 19  15  17  1   
 20  15  18  1   
 21  18  19  1   
 22  18  20  1   
 23  21  22  1   
 24  21  23  ar  
 25  23  24  1   
 26  23  43  ar  
 27  24  25  1   
 28  24  26  1   
 29  24  27  1   
 30  27  28  1   
 31  27  29  1   
 32  27  40  1   
 33  29  30  1   
 34  29  34  1   
 35  29  47  1   
 36  30  31  1   
 37  30  32  1   
 38  30  33  1   
 39  34  35  1   
 40  34  36  1   
 41  34  37  1   
 42  37  38  1   
 43  37  39  1   
 44  37  40  1   
 45  40  41  1   
 46  40  42  1   
 47  43  44  1   
 48  43  45  ar  
 49  45  46  1   
@<TRIPOS>SUBSTRUCTURE
  1 ****  21 GROUP 4 **** **** 0
@<TRIPOS>PROPERTY_DATA
rseq	|	1
mseq	|	11
S	|	-6.83023405075073
rmsd_refine	|	2.12005257606506
E_conf	|	-124.007453918457
E_place	|	-51.0833435058594
E_score1	|	-9.723464012146
E_refine	|	-39.2112236022949
E_score2	|	-6.83023405075073
Field_1	|	10
Field_2	|	cc-2-63
E_orig	|	1.79003345966339
PLIF_pronum	|	1
PLIF_raw	|	[[2,2,27,21,21,21,21,21],[6787,6787,1075,1245,1248,1246,1243,1242],[438,438,70,82,82,82,82,82],[2,7,7,10,10,10,10,10],[0.6,1.843563074,1.318737666,0.8,0.8,0.8,0.8,0.8]]
FP:PLIF	|	13 2 9 4
PLIF_ligidx	|	[27,[21,21,21,21,21],2,2]

# MOE 2020.09 (io_trps.svl 2020.11)

@<TRIPOS>MOLECULE
2XQJ
47 49 1 0 0 
SMALL
USER_CHARGES


@<TRIPOS>ATOM
  1 C      -18.4210   -38.7800   -23.9560 C.ar  1 <1>  -0.1710 
  2 O      -17.4210   -38.0180   -24.2150 O.3   1 <1>  -0.8290 
  3 C      -18.2810   -40.0090   -23.2630 C.ar  1 <1>  -0.1440 
  4 C      -16.9790   -40.4760   -22.6400 C.3   1 <1>   0.4870 
  5 H1     -17.0550   -41.5510   -22.5500 H     1 <1>   0.0800 
  6 H2     -16.9810   -40.1420   -21.6110 H     1 <1>   0.0800 
  7 N      -15.6830   -40.1230   -23.2870 N.4   1 <1>  -0.9590 
  8 H      -15.8780   -39.9570   -24.2650 H     1 <1>   0.4500 
  9 C      -14.6530   -41.1950   -23.1180 C.3   1 <1>   0.3430 
 10 H1     -15.0680   -42.1690   -22.8910 H     1 <1>   0.0800 
 11 H2     -14.0800   -41.3390   -24.0230 H     1 <1>   0.0800 
 12 C      -13.6990   -40.7480   -22.0160 C.3   1 <1>  -0.1600 
 13 H1     -14.1090   -41.0720   -21.0620 H     1 <1>   0.0800 
 14 H2     -12.6960   -41.1440   -22.1540 H     1 <1>   0.0800 
 15 C      -13.7270   -39.2250   -22.0800 C.3   1 <1>  -0.1600 
 16 H1     -12.9470   -38.8820   -22.7580 H     1 <1>   0.0800 
 17 H2     -13.6040   -38.7780   -21.0930 H     1 <1>   0.0800 
 18 C      -15.0860   -38.8810   -22.6900 C.3   1 <1>   0.3430 
 19 H1     -14.9720   -38.0840   -23.4130 H     1 <1>   0.0800 
 20 H2     -15.7220   -38.4630   -21.9210 H     1 <1>   0.0800 
 21 C      -19.3880   -40.8230   -23.0700 C.ar  1 <1>  -0.1500 
 22 H      -19.2720   -41.7450   -22.5610 H     1 <1>   0.1500 
 23 C      -20.6590   -40.4500   -23.5050 C.ar  1 <1>  -0.1440 
 24 C      -21.8320   -41.3710   -23.2380 C.3   1 <1>   0.4860 
 25 H1     -21.4510   -42.2290   -22.6990 H     1 <1>   0.0800 
 26 H2     -22.1410   -41.7890   -24.1870 H     1 <1>   0.0800 
 27 N      -23.0120   -40.7730   -22.5070 N.4   1 <1>  -0.9590 
 28 H      -23.4500   -40.1270   -23.1500 H     1 <1>   0.4500 
 29 C      -22.7500   -39.9830   -21.2510 C.3   1 <1>   0.4230 
 30 C      -21.6370   -40.5400   -20.3410 C.3   1 <1>  -0.2400 
 31 H1     -21.6270   -40.0140   -19.3870 H     1 <1>   0.0800 
 32 H2     -20.6550   -40.3960   -20.7820 H     1 <1>   0.0800 
 33 H3     -21.7810   -41.6030   -20.1490 H     1 <1>   0.0800 
 34 C      -24.0900   -39.9630   -20.5040 C.3   1 <1>  -0.1600 
 35 H1     -23.9800   -39.8530   -19.4250 H     1 <1>   0.0800 
 36 H2     -24.6800   -39.1310   -20.8910 H     1 <1>   0.0800 
 37 C      -24.7800   -41.2800   -20.8750 C.3   1 <1>  -0.1600 
 38 H1     -25.8440   -41.1250   -21.0570 H     1 <1>   0.0800 
 39 H2     -24.6400   -42.0140   -20.0800 H     1 <1>   0.0800 
 40 C      -24.0670   -41.7710   -22.1400 C.3   1 <1>   0.3430 
 41 H1     -24.7790   -41.9420   -22.9350 H     1 <1>   0.0800 
 42 H2     -23.6450   -42.7460   -21.9370 H     1 <1>   0.0800 
 43 C      -20.8110   -39.2290   -24.1600 C.ar  1 <1>  -0.1500 
 44 H      -21.7680   -38.9220   -24.4970 H     1 <1>   0.1500 
 45 C      -19.7170   -38.4070   -24.3780 C.ar  1 <1>  -0.1500 
 46 H      -19.8470   -37.4810   -24.8780 H     1 <1>   0.1500 
 47 H      -22.4810   -38.9610   -21.4850 H     1 <1>   0.0800 
@<TRIPOS>BOND
  1   1   2  1   
  2   1   3  ar  
  3   1  45  ar  
  4   3   4  1   
  5   3  21  ar  
  6   4   5  1   
  7   4   6  1   
  8   4   7  1   
  9   7   8  1   
 10   7   9  1   
 11   7  18  1   
 12   9  10  1   
 13   9  11  1   
 14   9  12  1   
 15  12  13  1   
 16  12  14  1   
 17  12  15  1   
 18  15  16  1   
 19  15  17  1   
 20  15  18  1   
 21  18  19  1   
 22  18  20  1   
 23  21  22  1   
 24  21  23  ar  
 25  23  24  1   
 26  23  43  ar  
 27  24  25  1   
 28  24  26  1   
 29  24  27  1   
 30  27  28  1   
 31  27  29  1   
 32  27  40  1   
 33  29  30  1   
 34  29  34  1   
 35  29  47  1   
 36  30  31  1   
 37  30  32  1   
 38  30  33  1   
 39  34  35  1   
 40  34  36  1   
 41  34  37  1   
 42  37  38  1   
 43  37  39  1   
 44  37  40  1   
 45  40  41  1   
 46  40  42  1   
 47  43  44  1   
 48  43  45  ar  
 49  45  46  1   
@<TRIPOS>SUBSTRUCTURE
  1 ****  21 GROUP 4 **** **** 0
@<TRIPOS>PROPERTY_DATA
rseq	|	1
mseq	|	11
S	|	-6.68426561355591
rmsd_refine	|	1.20543694496155
E_conf	|	-118.200325012207
E_place	|	-75.0644226074219
E_score1	|	-10.3601961135864
E_refine	|	-32.4142074584961
E_score2	|	-6.68426561355591
Field_1	|	10
Field_2	|	cc-2-63
E_orig	|	1.47552537918091
PLIF_pronum	|	1
PLIF_raw	|	[2,1790,117,4,0.7]
FP:PLIF	|	20
PLIF_ligidx	|	2

# MOE 2020.09 (io_trps.svl 2020.11)

@<TRIPOS>MOLECULE
2XQJ
47 49 1 0 0 
SMALL
USER_CHARGES


@<TRIPOS>ATOM
  1 C      -18.0700   -38.8910   -23.9080 C.ar  1 <1>  -0.1710 
  2 O      -17.0760   -38.1150   -24.1480 O.3   1 <1>  -0.8290 
  3 C      -17.8820   -40.2660   -23.6360 C.ar  1 <1>  -0.1440 
  4 C      -16.4780   -40.8360   -23.6730 C.3   1 <1>   0.4870 
  5 H1     -15.9460   -40.2800   -24.4300 H     1 <1>   0.0800 
  6 H2     -16.5360   -41.8310   -24.0930 H     1 <1>   0.0800 
  7 N      -15.6870   -40.8440   -22.3880 N.4   1 <1>  -0.9590 
  8 H      -16.0630   -41.5700   -21.7960 H     1 <1>   0.4500 
  9 C      -15.7390   -39.5470   -21.6320 C.3   1 <1>   0.3430 
 10 H1     -16.5470   -38.8920   -21.9290 H     1 <1>   0.0800 
 11 H2     -15.9040   -39.7260   -20.5780 H     1 <1>   0.0800 
 12 C      -14.3960   -38.8390   -21.7850 C.3   1 <1>  -0.1600 
 13 H1     -14.4450   -38.1850   -22.6570 H     1 <1>   0.0800 
 14 H2     -14.1360   -38.2640   -20.8960 H     1 <1>   0.0800 
 15 C      -13.3990   -39.9630   -22.0500 C.3   1 <1>  -0.1600 
 16 H1     -12.9560   -40.2860   -21.1080 H     1 <1>   0.0800 
 17 H2     -12.6180   -39.6430   -22.7380 H     1 <1>   0.0800 
 18 C      -14.2280   -41.1140   -22.6310 C.3   1 <1>   0.3430 
 19 H1     -13.8940   -42.0540   -22.2140 H     1 <1>   0.0800 
 20 H2     -14.0090   -41.1940   -23.6870 H     1 <1>   0.0800 
 21 C      -18.9730   -41.0850   -23.3780 C.ar  1 <1>  -0.1500 
 22 H      -18.8150   -42.1130   -23.1740 H     1 <1>   0.1500 
 23 C      -20.2760   -40.5820   -23.3990 C.ar  1 <1>  -0.1440 
 24 C      -21.4410   -41.5190   -23.1280 C.3   1 <1>   0.4860 
 25 H1     -21.0730   -42.3180   -22.4980 H     1 <1>   0.0800 
 26 H2     -21.6720   -42.0210   -24.0590 H     1 <1>   0.0800 
 27 N      -22.6880   -40.9070   -22.5310 N.4   1 <1>  -0.9590 
 28 H      -23.0390   -40.2480   -23.2130 H     1 <1>   0.4500 
 29 C      -22.5380   -40.1310   -21.2480 C.3   1 <1>   0.4230 
 30 C      -21.4490   -40.6510   -20.2900 C.3   1 <1>  -0.2400 
 31 H1     -21.4700   -40.0940   -19.3540 H     1 <1>   0.0800 
 32 H2     -20.4560   -40.5190   -20.7140 H     1 <1>   0.0800 
 33 H3     -21.5940   -41.7090   -20.0700 H     1 <1>   0.0800 
 34 C      -23.9190   -40.1600   -20.5810 C.3   1 <1>  -0.1600 
 35 H1     -23.8730   -40.0840   -19.4940 H     1 <1>   0.0800 
 36 H2     -24.5030   -39.3260   -20.9750 H     1 <1>   0.0800 
 37 C      -24.5610   -41.4740   -21.0350 C.3   1 <1>  -0.1600 
 38 H1     -25.6240   -41.3410   -21.2390 H     1 <1>   0.0800 
 39 H2     -24.4190   -42.2400   -20.2710 H     1 <1>   0.0800 
 40 C      -23.7990   -41.8860   -22.2990 C.3   1 <1>   0.3430 
 41 H1     -24.4780   -41.9440   -23.1390 H     1 <1>   0.0800 
 42 H2     -23.4350   -42.8970   -22.1690 H     1 <1>   0.0800 
 43 C      -20.4680   -39.2280   -23.6860 C.ar  1 <1>  -0.1500 
 44 H      -21.4470   -38.8240   -23.7240 H     1 <1>   0.1500 
 45 C      -19.3900   -38.3950   -23.9260 C.ar  1 <1>  -0.1500 
 46 H      -19.5500   -37.3680   -24.1360 H     1 <1>   0.1500 
 47 H      -22.2940   -39.0970   -21.4550 H     1 <1>   0.0800 
@<TRIPOS>BOND
  1   1   2  1   
  2   1   3  ar  
  3   1  45  ar  
  4   3   4  1   
  5   3  21  ar  
  6   4   5  1   
  7   4   6  1   
  8   4   7  1   
  9   7   8  1   
 10   7   9  1   
 11   7  18  1   
 12   9  10  1   
 13   9  11  1   
 14   9  12  1   
 15  12  13  1   
 16  12  14  1   
 17  12  15  1   
 18  15  16  1   
 19  15  17  1   
 20  15  18  1   
 21  18  19  1   
 22  18  20  1   
 23  21  22  1   
 24  21  23  ar  
 25  23  24  1   
 26  23  43  ar  
 27  24  25  1   
 28  24  26  1   
 29  24  27  1   
 30  27  28  1   
 31  27  29  1   
 32  27  40  1   
 33  29  30  1   
 34  29  34  1   
 35  29  47  1   
 36  30  31  1   
 37  30  32  1   
 38  30  33  1   
 39  34  35  1   
 40  34  36  1   
 41  34  37  1   
 42  37  38  1   
 43  37  39  1   
 44  37  40  1   
 45  40  41  1   
 46  40  42  1   
 47  43  44  1   
 48  43  45  ar  
 49  45  46  1   
@<TRIPOS>SUBSTRUCTURE
  1 ****  21 GROUP 4 **** **** 0
@<TRIPOS>PROPERTY_DATA
rseq	|	1
mseq	|	11
S	|	-6.67426538467407
rmsd_refine	|	1.52346348762512
E_conf	|	-123.153343200684
E_place	|	-59.1099739074707
E_score1	|	-9.65268039703369
E_refine	|	-33.8525352478027
E_score2	|	-6.67426538467407
Field_1	|	10
Field_2	|	cc-2-63
E_orig	|	1.67111170291901
PLIF_pronum	|	1
PLIF_raw	|	[2,1790,117,4,0.9]
FP:PLIF	|	20
PLIF_ligidx	|	2

# MOE 2020.09 (io_trps.svl 2020.11)

@<TRIPOS>MOLECULE
2XQJ
47 49 1 0 0 
SMALL
USER_CHARGES


@<TRIPOS>ATOM
  1 C      -20.6040   -38.6880   -25.0400 C.ar  1 <1>  -0.1710 
  2 O      -21.5440   -38.0960   -25.6810 O.3   1 <1>  -0.8290 
  3 C      -20.4940   -40.0960   -25.0320 C.ar  1 <1>  -0.1440 
  4 C      -21.5490   -40.9090   -25.7440 C.3   1 <1>   0.4870 
  5 H1     -22.4010   -40.2640   -25.9120 H     1 <1>   0.0800 
  6 H2     -21.9290   -41.6500   -25.0540 H     1 <1>   0.0800 
  7 N      -21.0860   -41.5340   -27.0200 N.4   1 <1>  -0.9590 
  8 H      -20.1640   -41.1650   -27.2130 H     1 <1>   0.4500 
  9 C      -21.9470   -41.1960   -28.1970 C.3   1 <1>   0.3430 
 10 H1     -22.8480   -40.6880   -27.8910 H     1 <1>   0.0800 
 11 H2     -21.4700   -40.5140   -28.8890 H     1 <1>   0.0800 
 12 C      -22.3340   -42.4910   -28.9170 C.3   1 <1>  -0.1600 
 13 H1     -23.3820   -42.4970   -29.2000 H     1 <1>   0.0800 
 14 H2     -21.7200   -42.6290   -29.8030 H     1 <1>   0.0800 
 15 C      -22.0470   -43.5970   -27.9170 C.3   1 <1>  -0.1600 
 16 H1     -21.6960   -44.5040   -28.4090 H     1 <1>   0.0800 
 17 H2     -22.9580   -43.7850   -27.3490 H     1 <1>   0.0800 
 18 C      -21.0000   -43.0220   -26.9680 C.3   1 <1>   0.3430 
 19 H1     -20.0240   -43.3650   -27.2830 H     1 <1>   0.0800 
 20 H2     -21.1340   -43.4280   -25.9740 H     1 <1>   0.0800 
 21 C      -19.4340   -40.7170   -24.3850 C.ar  1 <1>  -0.1500 
 22 H      -19.3600   -41.7740   -24.4010 H     1 <1>   0.1500 
 23 C      -18.4730   -39.9690   -23.7030 C.ar  1 <1>  -0.1440 
 24 C      -17.3370   -40.6560   -22.9780 C.3   1 <1>   0.4860 
 25 H1     -17.5180   -41.7190   -23.0510 H     1 <1>   0.0800 
 26 H2     -17.4540   -40.4440   -21.9250 H     1 <1>   0.0800 
 27 N      -15.9420   -40.3000   -23.4340 N.4   1 <1>  -0.9590 
 28 H      -15.9940   -40.1300   -24.4280 H     1 <1>   0.4500 
 29 C      -14.8810   -41.3580   -23.2050 C.3   1 <1>   0.4230 
 30 C      -15.3450   -42.8170   -23.0900 C.3   1 <1>  -0.2400 
 31 H1     -15.9560   -42.9670   -22.2010 H     1 <1>   0.0800 
 32 H2     -15.9220   -43.1050   -23.9690 H     1 <1>   0.0800 
 33 H3     -14.4830   -43.4810   -23.0280 H     1 <1>   0.0800 
 34 C      -14.0290   -40.8890   -22.0240 C.3   1 <1>  -0.1600 
 35 H1     -14.4960   -41.2180   -21.0960 H     1 <1>   0.0800 
 36 H2     -13.0060   -41.2580   -22.0890 H     1 <1>   0.0800 
 37 C      -14.0830   -39.3670   -22.0900 C.3   1 <1>  -0.1600 
 38 H1     -13.2780   -39.0050   -22.7300 H     1 <1>   0.0800 
 39 H2     -14.0080   -38.9160   -21.1000 H     1 <1>   0.0800 
 40 C      -15.4240   -39.0580   -22.7570 C.3   1 <1>   0.3430 
 41 H1     -15.3150   -38.2220   -23.4340 H     1 <1>   0.0800 
 42 H2     -16.1100   -38.7090   -21.9950 H     1 <1>   0.0800 
 43 C      -18.6040   -38.5820   -23.6720 C.ar  1 <1>  -0.1500 
 44 H      -17.9050   -38.0060   -23.1370 H     1 <1>   0.1500 
 45 C      -19.6430   -37.9470   -24.3260 C.ar  1 <1>  -0.1500 
 46 H      -19.7280   -36.8900   -24.2950 H     1 <1>   0.1500 
 47 H      -14.2080   -41.3430   -24.0510 H     1 <1>   0.0800 
@<TRIPOS>BOND
  1   1   2  1   
  2   1   3  ar  
  3   1  45  ar  
  4   3   4  1   
  5   3  21  ar  
  6   4   5  1   
  7   4   6  1   
  8   4   7  1   
  9   7   8  1   
 10   7   9  1   
 11   7  18  1   
 12   9  10  1   
 13   9  11  1   
 14   9  12  1   
 15  12  13  1   
 16  12  14  1   
 17  12  15  1   
 18  15  16  1   
 19  15  17  1   
 20  15  18  1   
 21  18  19  1   
 22  18  20  1   
 23  21  22  1   
 24  21  23  ar  
 25  23  24  1   
 26  23  43  ar  
 27  24  25  1   
 28  24  26  1   
 29  24  27  1   
 30  27  28  1   
 31  27  29  1   
 32  27  40  1   
 33  29  30  1   
 34  29  34  1   
 35  29  47  1   
 36  30  31  1   
 37  30  32  1   
 38  30  33  1   
 39  34  35  1   
 40  34  36  1   
 41  34  37  1   
 42  37  38  1   
 43  37  39  1   
 44  37  40  1   
 45  40  41  1   
 46  40  42  1   
 47  43  44  1   
 48  43  45  ar  
 49  45  46  1   
@<TRIPOS>SUBSTRUCTURE
  1 ****  21 GROUP 4 **** **** 0
@<TRIPOS>PROPERTY_DATA
rseq	|	1
mseq	|	11
S	|	-6.67288112640381
rmsd_refine	|	2.46896123886108
E_conf	|	-121.692001342773
E_place	|	-54.9648017883301
E_score1	|	-9.70845508575439
E_refine	|	-33.3670768737793
E_score2	|	-6.67288112640381
Field_1	|	10
Field_2	|	cc-2-63
E_orig	|	2.47529363632202
PLIF_pronum	|	1
PLIF_raw	|	[[7,1,3,21,23,43,45],[1842,1785,1785,1785,1785,1785,1785],[120,116,116,116,116,116,116],[1,10,10,10,10,10,10],[3.2,0.5,0.5,0.5,0.5,0.5,0.5]]
FP:PLIF	|	18 17 19
PLIF_ligidx	|	[[1,3,21,23,43,45],7,7]

# MOE 2020.09 (io_trps.svl 2020.11)

@<TRIPOS>MOLECULE
2XQJ
47 49 1 0 0 
SMALL
USER_CHARGES


@<TRIPOS>ATOM
  1 C      -18.4810   -38.3150   -23.8840 C.ar  1 <1>  -0.1710 
  2 O      -17.3180   -37.9500   -24.2930 O.3   1 <1>  -0.8290 
  3 C      -18.7420   -39.6180   -23.3770 C.ar  1 <1>  -0.1440 
  4 C      -17.6430   -40.6720   -23.2770 C.3   1 <1>   0.4870 
  5 H1     -17.7080   -41.2760   -24.1720 H     1 <1>   0.0800 
  6 H2     -17.9160   -41.3600   -22.4910 H     1 <1>   0.0800 
  7 N      -16.2370   -40.1700   -23.0910 N.4   1 <1>  -0.9590 
  8 H      -16.0920   -39.5310   -23.8650 H     1 <1>   0.4500 
  9 C      -15.1330   -41.1720   -23.1160 C.3   1 <1>   0.3430 
 10 H1     -15.4220   -42.0930   -22.6260 H     1 <1>   0.0800 
 11 H2     -14.8410   -41.4670   -24.1150 H     1 <1>   0.0800 
 12 C      -13.9410   -40.5720   -22.3550 C.3   1 <1>  -0.1600 
 13 H1     -13.6040   -41.2670   -21.5880 H     1 <1>   0.0800 
 14 H2     -13.1250   -40.3490   -23.0410 H     1 <1>   0.0800 
 15 C      -14.4630   -39.2760   -21.7190 C.3   1 <1>  -0.1600 
 16 H1     -14.0930   -38.4220   -22.2880 H     1 <1>   0.0800 
 17 H2     -14.1670   -39.1750   -20.6770 H     1 <1>   0.0800 
 18 C      -15.9800   -39.3480   -21.8820 C.3   1 <1>   0.3430 
 19 H1     -16.4180   -38.3610   -21.9260 H     1 <1>   0.0800 
 20 H2     -16.3980   -39.8090   -20.9990 H     1 <1>   0.0800 
 21 C      -20.0350   -39.9670   -23.0000 C.ar  1 <1>  -0.1500 
 22 H      -20.2200   -40.9480   -22.6480 H     1 <1>   0.1500 
 23 C      -21.0950   -39.0570   -23.0920 C.ar  1 <1>  -0.1440 
 24 C      -22.5290   -39.4170   -22.7480 C.3   1 <1>   0.4860 
 25 H1     -23.0010   -39.8120   -23.6370 H     1 <1>   0.0800 
 26 H2     -23.0520   -38.4820   -22.5990 H     1 <1>   0.0800 
 27 N      -22.7390   -40.3190   -21.5520 N.4   1 <1>  -0.9590 
 28 H      -21.9580   -40.1600   -20.9330 H     1 <1>   0.4500 
 29 C      -22.7890   -41.8190   -21.8120 C.3   1 <1>   0.4230 
 30 C      -23.0820   -42.2510   -23.2610 C.3   1 <1>  -0.2400 
 31 H1     -23.1200   -43.3390   -23.3320 H     1 <1>   0.0800 
 32 H2     -22.3000   -41.9070   -23.9380 H     1 <1>   0.0800 
 33 H3     -24.0390   -41.8580   -23.6000 H     1 <1>   0.0800 
 34 C      -23.8360   -42.3970   -20.8480 C.3   1 <1>  -0.1600 
 35 H1     -24.3710   -43.2530   -21.2630 H     1 <1>   0.0800 
 36 H2     -23.3270   -42.7050   -19.9340 H     1 <1>   0.0800 
 37 C      -24.7860   -41.2440   -20.5300 C.3   1 <1>  -0.1600 
 38 H1     -25.1560   -41.2990   -19.5060 H     1 <1>   0.0800 
 39 H2     -25.6220   -41.2630   -21.2300 H     1 <1>   0.0800 
 40 C      -23.9730   -39.9730   -20.7710 C.3   1 <1>   0.3430 
 41 H1     -23.7250   -39.5260   -19.8170 H     1 <1>   0.0800 
 42 H2     -24.5930   -39.2370   -21.2650 H     1 <1>   0.0800 
 43 C      -20.8300   -37.7710   -23.5580 C.ar  1 <1>  -0.1500 
 44 H      -21.6150   -37.0610   -23.6300 H     1 <1>   0.1500 
 45 C      -19.5560   -37.4040   -23.9450 C.ar  1 <1>  -0.1500 
 46 H      -19.3810   -36.4230   -24.3050 H     1 <1>   0.1500 
 47 H      -21.8400   -42.2710   -21.5590 H     1 <1>   0.0800 
@<TRIPOS>BOND
  1   1   2  1   
  2   1   3  ar  
  3   1  45  ar  
  4   3   4  1   
  5   3  21  ar  
  6   4   5  1   
  7   4   6  1   
  8   4   7  1   
  9   7   8  1   
 10   7   9  1   
 11   7  18  1   
 12   9  10  1   
 13   9  11  1   
 14   9  12  1   
 15  12  13  1   
 16  12  14  1   
 17  12  15  1   
 18  15  16  1   
 19  15  17  1   
 20  15  18  1   
 21  18  19  1   
 22  18  20  1   
 23  21  22  1   
 24  21  23  ar  
 25  23  24  1   
 26  23  43  ar  
 27  24  25  1   
 28  24  26  1   
 29  24  27  1   
 30  27  28  1   
 31  27  29  1   
 32  27  40  1   
 33  29  30  1   
 34  29  34  1   
 35  29  47  1   
 36  30  31  1   
 37  30  32  1   
 38  30  33  1   
 39  34  35  1   
 40  34  36  1   
 41  34  37  1   
 42  37  38  1   
 43  37  39  1   
 44  37  40  1   
 45  40  41  1   
 46  40  42  1   
 47  43  44  1   
 48  43  45  ar  
 49  45  46  1   
@<TRIPOS>SUBSTRUCTURE
  1 ****  21 GROUP 4 **** **** 0
@<TRIPOS>PROPERTY_DATA
rseq	|	1
mseq	|	11
S	|	-6.66275405883789
rmsd_refine	|	1.50140285491943
E_conf	|	-119.202880859375
E_place	|	-66.9181747436523
E_score1	|	-10.6117992401123
E_refine	|	-36.4636154174805
E_score2	|	-6.66275405883789
Field_1	|	10
Field_2	|	cc-2-63
E_orig	|	1.40000009536743
PLIF_pronum	|	1
PLIF_raw	|	[[2,1,3,21,23,43,45],[1790,6787,6787,6787,6787,6787,6787],[117,438,438,438,438,438,438],[4,10,10,10,10,10,10],[1.4,0.9,0.9,0.9,0.9,0.9,0.9]]
FP:PLIF	|	20 14
PLIF_ligidx	|	[2,[1,3,21,23,43,45]]

# MOE 2020.09 (io_trps.svl 2020.11)

@<TRIPOS>MOLECULE
2XQJ
47 49 1 0 0 
SMALL
USER_CHARGES


@<TRIPOS>ATOM
  1 C      -20.8590   -38.7080   -22.7320 C.ar  1 <1>  -0.1710 
  2 O      -22.0310   -38.2550   -22.4700 O.3   1 <1>  -0.8290 
  3 C      -20.4500   -39.9740   -22.2620 C.ar  1 <1>  -0.1440 
  4 C      -21.3600   -40.7760   -21.3620 C.3   1 <1>   0.4870 
  5 H1     -21.9640   -40.0840   -20.7900 H     1 <1>   0.0800 
  6 H2     -20.7340   -41.2420   -20.6140 H     1 <1>   0.0800 
  7 N      -22.2110   -41.7950   -22.0460 N.4   1 <1>  -0.9590 
  8 H      -21.7040   -42.1340   -22.8500 H     1 <1>   0.4500 
  9 C      -23.5160   -41.2170   -22.5100 C.3   1 <1>   0.3430 
 10 H1     -23.6020   -40.1680   -22.2570 H     1 <1>   0.0800 
 11 H2     -23.6320   -41.2470   -23.5860 H     1 <1>   0.0800 
 12 C      -24.6600   -41.9860   -21.8400 C.3   1 <1>  -0.1600 
 13 H1     -25.4350   -41.3160   -21.4670 H     1 <1>   0.0800 
 14 H2     -25.0790   -42.6870   -22.5630 H     1 <1>   0.0800 
 15 C      -24.0070   -42.7690   -20.7060 C.3   1 <1>  -0.1600 
 16 H1     -24.4960   -43.7270   -20.5340 H     1 <1>   0.0800 
 17 H2     -24.0280   -42.1680   -19.7970 H     1 <1>   0.0800 
 18 C      -22.5610   -42.9440   -21.1550 C.3   1 <1>   0.3430 
 19 H1     -22.4840   -43.8830   -21.6870 H     1 <1>   0.0800 
 20 H2     -21.9060   -43.0500   -20.3000 H     1 <1>   0.0800 
 21 C      -19.1980   -40.4670   -22.5840 C.ar  1 <1>  -0.1500 
 22 H      -18.9290   -41.4390   -22.2650 H     1 <1>   0.1500 
 23 C      -18.2780   -39.6970   -23.2940 C.ar  1 <1>  -0.1440 
 24 C      -16.8750   -40.2190   -23.4870 C.3   1 <1>   0.4860 
 25 H1     -16.3250   -39.5330   -24.1180 H     1 <1>   0.0800 
 26 H2     -16.9390   -41.1270   -24.0720 H     1 <1>   0.0800 
 27 N      -16.1720   -40.4580   -22.1840 N.4   1 <1>  -0.9590 
 28 H      -16.8960   -40.7960   -21.5690 H     1 <1>   0.4500 
 29 C      -15.6580   -39.2040   -21.5370 C.3   1 <1>   0.3430 
 30 H1     -16.3810   -38.4010   -21.5950 H     1 <1>   0.0800 
 31 H2     -15.5290   -39.3640   -20.4760 H     1 <1>   0.0800 
 32 C      -14.3150   -38.7120   -22.0850 C.3   1 <1>  -0.1600 
 33 H1     -14.4550   -38.3710   -23.1100 H     1 <1>   0.0800 
 34 H2     -13.9780   -37.8670   -21.4840 H     1 <1>   0.0800 
 35 C      -13.2550   -39.8210   -22.0500 C.3   1 <1>  -0.1600 
 36 H1     -12.3500   -39.4740   -22.5440 H     1 <1>   0.0800 
 37 H2     -13.0160   -40.0570   -21.0130 H     1 <1>   0.0800 
 38 C      -13.7650   -41.0890   -22.7510 C.3   1 <1>  -0.1600 
 39 H1     -13.0510   -41.8980   -22.6110 H     1 <1>   0.0800 
 40 H2     -13.8470   -40.9020   -23.8160 H     1 <1>   0.0800 
 41 C      -15.1310   -41.5390   -22.2270 C.3   1 <1>   0.3430 
 42 H1     -14.9780   -41.9360   -21.2330 H     1 <1>   0.0800 
 43 H2     -15.4620   -42.3940   -22.8010 H     1 <1>   0.0800 
 44 C      -18.6620   -38.4330   -23.7420 C.ar  1 <1>  -0.1500 
 45 H      -17.9770   -37.8320   -24.2800 H     1 <1>   0.1500 
 46 C      -19.9330   -37.9490   -23.4810 C.ar  1 <1>  -0.1500 
 47 H      -20.2210   -36.9910   -23.8320 H     1 <1>   0.1500 
@<TRIPOS>BOND
  1   1   2  1   
  2   1   3  ar  
  3   1  46  ar  
  4   3   4  1   
  5   3  21  ar  
  6   4   5  1   
  7   4   6  1   
  8   4   7  1   
  9   7   8  1   
 10   7   9  1   
 11   7  18  1   
 12   9  10  1   
 13   9  11  1   
 14   9  12  1   
 15  12  13  1   
 16  12  14  1   
 17  12  15  1   
 18  15  16  1   
 19  15  17  1   
 20  15  18  1   
 21  18  19  1   
 22  18  20  1   
 23  21  22  1   
 24  21  23  ar  
 25  23  24  1   
 26  23  44  ar  
 27  24  25  1   
 28  24  26  1   
 29  24  27  1   
 30  27  28  1   
 31  27  29  1   
 32  27  41  1   
 33  29  30  1   
 34  29  31  1   
 35  29  32  1   
 36  32  33  1   
 37  32  34  1   
 38  32  35  1   
 39  35  36  1   
 40  35  37  1   
 41  35  38  1   
 42  38  39  1   
 43  38  40  1   
 44  38  41  1   
 45  41  42  1   
 46  41  43  1   
 47  44  45  1   
 48  44  46  ar  
 49  46  47  1   
@<TRIPOS>SUBSTRUCTURE
  1 ****  21 GROUP 4 **** **** 0
@<TRIPOS>PROPERTY_DATA
rseq	|	1
mseq	|	12
S	|	-6.90182256698608
rmsd_refine	|	1.63392412662506
E_conf	|	-109.360649108887
E_place	|	-55.541072845459
E_score1	|	-10.0860290527344
E_refine	|	-32.3667755126953
E_score2	|	-6.90182256698608
Field_1	|	11
Field_2	|	cc-2-81
E_orig	|	0.408719927072525
PLIF_pronum	|	1
PLIF_raw	|	[[2,1,46,44,23,21,3],[6787,6787,6787,6787,6787,6787,6787],[438,438,438,438,438,438,438],[7,10,10,10,10,10,10],[0.8212928376,0.5,0.5,0.5,0.5,0.5,0.5]]
FP:PLIF	|	4 14
PLIF_ligidx	|	[2,[1,46,44,23,21,3]]

# MOE 2020.09 (io_trps.svl 2020.11)

@<TRIPOS>MOLECULE
2XQJ
47 49 1 0 0 
SMALL
USER_CHARGES


@<TRIPOS>ATOM
  1 C      -18.1380   -38.9770   -23.7800 C.ar  1 <1>  -0.1710 
  2 O      -17.1490   -38.2340   -24.1330 O.3   1 <1>  -0.8290 
  3 C      -17.9730   -40.3210   -23.3460 C.ar  1 <1>  -0.1440 
  4 C      -16.6110   -40.9890   -23.2470 C.3   1 <1>   0.4870 
  5 H1     -16.4500   -41.5200   -24.1760 H     1 <1>   0.0800 
  6 H2     -16.6820   -41.7800   -22.5130 H     1 <1>   0.0800 
  7 N      -15.4470   -40.0990   -22.9490 N.4   1 <1>  -0.9590 
  8 H      -15.4510   -39.4060   -23.6870 H     1 <1>   0.4500 
  9 C      -14.1050   -40.7470   -22.9210 C.3   1 <1>   0.3430 
 10 H1     -14.1520   -41.7450   -22.5060 H     1 <1>   0.0800 
 11 H2     -13.6660   -40.8730   -23.9010 H     1 <1>   0.0800 
 12 C      -13.1960   -39.8950   -22.0290 C.3   1 <1>  -0.1600 
 13 H1     -12.7290   -40.5230   -21.2720 H     1 <1>   0.0800 
 14 H2     -12.4330   -39.4070   -22.6340 H     1 <1>   0.0800 
 15 C      -14.1080   -38.8440   -21.3830 C.3   1 <1>  -0.1600 
 16 H1     -13.9510   -37.8830   -21.8740 H     1 <1>   0.0800 
 17 H2     -13.9270   -38.7440   -20.3150 H     1 <1>   0.0800 
 18 C      -15.5270   -39.3130   -21.6910 C.3   1 <1>   0.3430 
 19 H1     -16.2120   -38.4780   -21.7440 H     1 <1>   0.0800 
 20 H2     -15.8760   -39.9220   -20.8680 H     1 <1>   0.0800 
 21 C      -19.0870   -41.0840   -23.0240 C.ar  1 <1>  -0.1500 
 22 H      -18.9570   -42.0910   -22.7200 H     1 <1>   0.1500 
 23 C      -20.3770   -40.5600   -23.1010 C.ar  1 <1>  -0.1440 
 24 C      -21.5650   -41.4230   -22.7480 C.3   1 <1>   0.4860 
 25 H1     -21.4150   -42.3860   -23.2180 H     1 <1>   0.0800 
 26 H2     -22.4380   -41.0270   -23.2480 H     1 <1>   0.0800 
 27 N      -21.8010   -41.5780   -21.2720 N.4   1 <1>  -0.9590 
 28 H      -20.8900   -41.7330   -20.8620 H     1 <1>   0.4500 
 29 C      -22.6430   -42.7840   -20.9520 C.3   1 <1>   0.3430 
 30 H1     -22.3020   -43.6610   -21.4860 H     1 <1>   0.0800 
 31 H2     -22.5360   -43.0560   -19.9100 H     1 <1>   0.0800 
 32 C      -24.1400   -42.5950   -21.2270 C.3   1 <1>  -0.1600 
 33 H1     -24.2970   -42.5180   -22.3050 H     1 <1>   0.0800 
 34 H2     -24.6630   -43.4790   -20.8660 H     1 <1>   0.0800 
 35 C      -24.7040   -41.3400   -20.5410 C.3   1 <1>  -0.1600 
 36 H1     -25.7380   -41.1830   -20.8510 H     1 <1>   0.0800 
 37 H2     -24.6830   -41.4820   -19.4590 H     1 <1>   0.0800 
 38 C      -23.8630   -40.1080   -20.9090 C.3   1 <1>  -0.1600 
 39 H1     -24.2040   -39.2480   -20.3320 H     1 <1>   0.0800 
 40 H2     -23.9990   -39.8850   -21.9680 H     1 <1>   0.0800 
 41 C      -22.3650   -40.3300   -20.6470 C.3   1 <1>   0.3430 
 42 H1     -22.2180   -40.3400   -19.5760 H     1 <1>   0.0800 
 43 H2     -21.8290   -39.4520   -20.9790 H     1 <1>   0.0800 
 44 C      -20.5440   -39.2350   -23.4970 C.ar  1 <1>  -0.1500 
 45 H      -21.5160   -38.8180   -23.5530 H     1 <1>   0.1500 
 46 C      -19.4490   -38.4560   -23.8290 C.ar  1 <1>  -0.1500 
 47 H      -19.5910   -37.4510   -24.1350 H     1 <1>   0.1500 
@<TRIPOS>BOND
  1   1   2  1   
  2   1   3  ar  
  3   1  46  ar  
  4   3   4  1   
  5   3  21  ar  
  6   4   5  1   
  7   4   6  1   
  8   4   7  1   
  9   7   8  1   
 10   7   9  1   
 11   7  18  1   
 12   9  10  1   
 13   9  11  1   
 14   9  12  1   
 15  12  13  1   
 16  12  14  1   
 17  12  15  1   
 18  15  16  1   
 19  15  17  1   
 20  15  18  1   
 21  18  19  1   
 22  18  20  1   
 23  21  22  1   
 24  21  23  ar  
 25  23  24  1   
 26  23  44  ar  
 27  24  25  1   
 28  24  26  1   
 29  24  27  1   
 30  27  28  1   
 31  27  29  1   
 32  27  41  1   
 33  29  30  1   
 34  29  31  1   
 35  29  32  1   
 36  32  33  1   
 37  32  34  1   
 38  32  35  1   
 39  35  36  1   
 40  35  37  1   
 41  35  38  1   
 42  38  39  1   
 43  38  40  1   
 44  38  41  1   
 45  41  42  1   
 46  41  43  1   
 47  44  45  1   
 48  44  46  ar  
 49  46  47  1   
@<TRIPOS>SUBSTRUCTURE
  1 ****  21 GROUP 4 **** **** 0
@<TRIPOS>PROPERTY_DATA
rseq	|	1
mseq	|	12
S	|	-6.82909154891968
rmsd_refine	|	0.834410667419434
E_conf	|	-108.365325927734
E_place	|	-65.4590377807617
E_score1	|	-10.6237182617188
E_refine	|	-34.7610511779785
E_score2	|	-6.82909154891968
Field_1	|	11
Field_2	|	cc-2-81
E_orig	|	0.688489198684692
PLIF_pronum	|	1
PLIF_raw	|	[[2,27,27,27,27,27,27],[1790,5026,5028,5024,5020,5019,5022],[117,329,329,329,329,329,329],[4,10,10,10,10,10,10],[0.5,0.5,0.5,0.5,0.5,0.5,0.5]]
FP:PLIF	|	20 29
PLIF_ligidx	|	[2,[27,27,27,27,27,27]]

# MOE 2020.09 (io_trps.svl 2020.11)

@<TRIPOS>MOLECULE
2XQJ
47 49 1 0 0 
SMALL
USER_CHARGES


@<TRIPOS>ATOM
  1 C      -20.5170   -38.7730   -24.7110 C.ar  1 <1>  -0.1710 
  2 O      -21.6360   -38.1950   -24.9460 O.3   1 <1>  -0.8290 
  3 C      -20.3260   -40.1460   -24.9870 C.ar  1 <1>  -0.1440 
  4 C      -21.4490   -40.9270   -25.6330 C.3   1 <1>   0.4870 
  5 H1     -22.2910   -40.2600   -25.7630 H     1 <1>   0.0800 
  6 H2     -21.8120   -41.6530   -24.9180 H     1 <1>   0.0800 
  7 N      -21.0690   -41.5740   -26.9340 N.4   1 <1>  -0.9590 
  8 H      -20.1370   -41.2540   -27.1600 H     1 <1>   0.4500 
  9 C      -21.9440   -41.1960   -28.0900 C.3   1 <1>   0.3430 
 10 H1     -22.8480   -40.7100   -27.7570 H     1 <1>   0.0800 
 11 H2     -21.4810   -40.4840   -28.7590 H     1 <1>   0.0800 
 12 C      -22.3310   -42.4660   -28.8510 C.3   1 <1>  -0.1600 
 13 H1     -23.3700   -42.4560   -29.1640 H     1 <1>   0.0800 
 14 H2     -21.6940   -42.5930   -29.7220 H     1 <1>   0.0800 
 15 C      -22.0840   -43.5980   -27.8720 C.3   1 <1>  -0.1600 
 16 H1     -21.7390   -44.4980   -28.3800 H     1 <1>   0.0800 
 17 H2     -23.0100   -43.7820   -27.3270 H     1 <1>   0.0800 
 18 C      -21.0460   -43.0660   -26.8870 C.3   1 <1>   0.3430 
 19 H1     -20.0740   -43.4480   -27.1710 H     1 <1>   0.0800 
 20 H2     -21.2300   -43.4690   -25.9010 H     1 <1>   0.0800 
 21 C      -19.1110   -40.7560   -24.7060 C.ar  1 <1>  -0.1500 
 22 H      -18.9850   -41.7880   -24.9090 H     1 <1>   0.1500 
 23 C      -18.0430   -40.0230   -24.1850 C.ar  1 <1>  -0.1440 
 24 C      -16.7080   -40.6850   -23.9430 C.3   1 <1>   0.4860 
 25 H1     -15.9540   -40.0940   -24.4360 H     1 <1>   0.0800 
 26 H2     -16.7040   -41.6140   -24.4980 H     1 <1>   0.0800 
 27 N      -16.3260   -40.9220   -22.5160 N.4   1 <1>  -0.9590 
 28 H      -17.1370   -41.3390   -22.0820 H     1 <1>   0.4500 
 29 C      -15.9980   -39.6670   -21.7400 C.3   1 <1>   0.3430 
 30 H1     -15.9680   -39.8830   -20.6810 H     1 <1>   0.0800 
 31 H2     -16.7780   -38.9230   -21.8250 H     1 <1>   0.0800 
 32 C      -14.6510   -39.0270   -22.1090 C.3   1 <1>  -0.1600 
 33 H1     -14.7160   -38.6300   -23.1210 H     1 <1>   0.0800 
 34 H2     -14.4510   -38.1990   -21.4270 H     1 <1>   0.0800 
 35 C      -13.4950   -40.0380   -22.0310 C.3   1 <1>  -0.1600 
 36 H1     -12.5910   -39.5930   -22.4470 H     1 <1>   0.0800 
 37 H2     -13.3050   -40.2820   -20.9870 H     1 <1>   0.0800 
 38 C      -13.8350   -41.3290   -22.7930 C.3   1 <1>  -0.1600 
 39 H1     -13.0690   -42.0760   -22.6050 H     1 <1>   0.0800 
 40 H2     -13.8340   -41.1270   -23.8590 H     1 <1>   0.0800 
 41 C      -15.2040   -41.9040   -22.4000 C.3   1 <1>   0.3430 
 42 H1     -15.1370   -42.2610   -21.3820 H     1 <1>   0.0800 
 43 H2     -15.3880   -42.7980   -22.9820 H     1 <1>   0.0800 
 44 C      -18.2190   -38.6630   -23.9360 C.ar  1 <1>  -0.1500 
 45 H      -17.4140   -38.0900   -23.5690 H     1 <1>   0.1500 
 46 C      -19.4330   -38.0470   -24.1790 C.ar  1 <1>  -0.1500 
 47 H      -19.5570   -37.0130   -23.9780 H     1 <1>   0.1500 
@<TRIPOS>BOND
  1   1   2  1   
  2   1   3  ar  
  3   1  46  ar  
  4   3   4  1   
  5   3  21  ar  
  6   4   5  1   
  7   4   6  1   
  8   4   7  1   
  9   7   8  1   
 10   7   9  1   
 11   7  18  1   
 12   9  10  1   
 13   9  11  1   
 14   9  12  1   
 15  12  13  1   
 16  12  14  1   
 17  12  15  1   
 18  15  16  1   
 19  15  17  1   
 20  15  18  1   
 21  18  19  1   
 22  18  20  1   
 23  21  22  1   
 24  21  23  ar  
 25  23  24  1   
 26  23  44  ar  
 27  24  25  1   
 28  24  26  1   
 29  24  27  1   
 30  27  28  1   
 31  27  29  1   
 32  27  41  1   
 33  29  30  1   
 34  29  31  1   
 35  29  32  1   
 36  32  33  1   
 37  32  34  1   
 38  32  35  1   
 39  35  36  1   
 40  35  37  1   
 41  35  38  1   
 42  38  39  1   
 43  38  40  1   
 44  38  41  1   
 45  41  42  1   
 46  41  43  1   
 47  44  45  1   
 48  44  46  ar  
 49  46  47  1   
@<TRIPOS>SUBSTRUCTURE
  1 ****  21 GROUP 4 **** **** 0
@<TRIPOS>PROPERTY_DATA
rseq	|	1
mseq	|	12
S	|	-6.77147722244263
rmsd_refine	|	1.40338039398193
E_conf	|	-108.469589233398
E_place	|	-52.8912925720215
E_score1	|	-9.96684837341309
E_refine	|	-32.0379295349121
E_score2	|	-6.77147722244263
Field_1	|	11
Field_2	|	cc-2-81
E_orig	|	1.79999995231628
PLIF_pronum	|	1
PLIF_raw	|	[7,1842,120,1,3.3]
FP:PLIF	|	17 19
PLIF_ligidx	|	[7,7]

# MOE 2020.09 (io_trps.svl 2020.11)

@<TRIPOS>MOLECULE
2XQJ
47 49 1 0 0 
SMALL
USER_CHARGES


@<TRIPOS>ATOM
  1 C      -21.1420   -39.4670   -23.0350 C.ar  1 <1>  -0.1710 
  2 O      -22.2860   -38.8940   -22.9240 O.3   1 <1>  -0.8290 
  3 C      -20.1560   -38.9750   -23.9170 C.ar  1 <1>  -0.1440 
  4 C      -20.5200   -37.8330   -24.8370 C.3   1 <1>   0.4870 
  5 H1     -19.6320   -37.5200   -25.3670 H     1 <1>   0.0800 
  6 H2     -20.7790   -36.9810   -24.2220 H     1 <1>   0.0800 
  7 N      -21.6310   -38.1670   -25.7840 N.4   1 <1>  -0.9590 
  8 H      -22.4310   -38.3770   -25.1940 H     1 <1>   0.4500 
  9 C      -21.3920   -39.3820   -26.6330 C.3   1 <1>   0.3430 
 10 H1     -20.4340   -39.8510   -26.4540 H     1 <1>   0.0800 
 11 H2     -22.1190   -40.1540   -26.4190 H     1 <1>   0.0800 
 12 C      -21.5110   -38.9840   -28.1040 C.3   1 <1>  -0.1600 
 13 H1     -20.5130   -38.8070   -28.5020 H     1 <1>   0.0800 
 14 H2     -22.0150   -39.7520   -28.6900 H     1 <1>   0.0800 
 15 C      -22.2920   -37.6710   -28.0880 C.3   1 <1>  -0.1600 
 16 H1     -23.3540   -37.8970   -28.1570 H     1 <1>   0.0800 
 17 H2     -21.9940   -37.0010   -28.8940 H     1 <1>   0.0800 
 18 C      -22.0060   -37.0650   -26.7140 C.3   1 <1>   0.3430 
 19 H1     -22.8490   -36.4800   -26.3690 H     1 <1>   0.0800 
 20 H2     -21.2000   -36.3510   -26.8190 H     1 <1>   0.0800 
 21 C      -18.9040   -39.5710   -23.9780 C.ar  1 <1>  -0.1500 
 22 H      -18.1740   -39.1750   -24.6310 H     1 <1>   0.1500 
 23 C      -18.5950   -40.6890   -23.1990 C.ar  1 <1>  -0.1440 
 24 C      -17.2290   -41.3610   -23.2370 C.3   1 <1>   0.4860 
 25 H1     -17.3060   -42.1880   -23.9310 H     1 <1>   0.0800 
 26 H2     -17.0800   -41.8640   -22.2960 H     1 <1>   0.0800 
 27 N      -16.0170   -40.5150   -23.5670 N.4   1 <1>  -0.9590 
 28 H      -16.0960   -40.3550   -24.5610 H     1 <1>   0.4500 
 29 C      -14.7220   -41.2870   -23.3730 C.3   1 <1>   0.3430 
 30 H1     -14.8620   -42.3470   -23.5420 H     1 <1>   0.0800 
 31 H2     -13.9900   -41.0100   -24.1150 H     1 <1>   0.0800 
 32 C      -14.0320   -41.0970   -22.0210 C.3   1 <1>  -0.1600 
 33 H1     -14.6450   -41.5670   -21.2530 H     1 <1>   0.0800 
 34 H2     -13.0580   -41.5780   -22.0630 H     1 <1>   0.0800 
 35 C      -13.8460   -39.6240   -21.6670 C.3   1 <1>  -0.1600 
 36 H1     -13.3330   -39.5260   -20.7110 H     1 <1>   0.0800 
 37 H2     -13.2570   -39.1240   -22.4380 H     1 <1>   0.0800 
 38 C      -15.2430   -39.0120   -21.5860 C.3   1 <1>  -0.1600 
 39 H1     -15.1560   -37.9620   -21.3130 H     1 <1>   0.0800 
 40 H2     -15.8210   -39.5230   -20.8160 H     1 <1>   0.0800 
 41 C      -15.9860   -39.1330   -22.9220 C.3   1 <1>   0.3430 
 42 H1     -15.5200   -38.4270   -23.5960 H     1 <1>   0.0800 
 43 H2     -16.9790   -38.7290   -22.7830 H     1 <1>   0.0800 
 44 C      -19.5960   -41.2240   -22.3860 C.ar  1 <1>  -0.1500 
 45 H      -19.4160   -42.1070   -21.8320 H     1 <1>   0.1500 
 46 C      -20.8380   -40.6220   -22.2900 C.ar  1 <1>  -0.1500 
 47 H      -21.5790   -41.0340   -21.6550 H     1 <1>   0.1500 
@<TRIPOS>BOND
  1   1   2  1   
  2   1   3  ar  
  3   1  46  ar  
  4   3   4  1   
  5   3  21  ar  
  6   4   5  1   
  7   4   6  1   
  8   4   7  1   
  9   7   8  1   
 10   7   9  1   
 11   7  18  1   
 12   9  10  1   
 13   9  11  1   
 14   9  12  1   
 15  12  13  1   
 16  12  14  1   
 17  12  15  1   
 18  15  16  1   
 19  15  17  1   
 20  15  18  1   
 21  18  19  1   
 22  18  20  1   
 23  21  22  1   
 24  21  23  ar  
 25  23  24  1   
 26  23  44  ar  
 27  24  25  1   
 28  24  26  1   
 29  24  27  1   
 30  27  28  1   
 31  27  29  1   
 32  27  41  1   
 33  29  30  1   
 34  29  31  1   
 35  29  32  1   
 36  32  33  1   
 37  32  34  1   
 38  32  35  1   
 39  35  36  1   
 40  35  37  1   
 41  35  38  1   
 42  38  39  1   
 43  38  40  1   
 44  38  41  1   
 45  41  42  1   
 46  41  43  1   
 47  44  45  1   
 48  44  46  ar  
 49  46  47  1   
@<TRIPOS>SUBSTRUCTURE
  1 ****  21 GROUP 4 **** **** 0
@<TRIPOS>PROPERTY_DATA
rseq	|	1
mseq	|	12
S	|	-6.76969432830811
rmsd_refine	|	1.02110934257507
E_conf	|	-105.827262878418
E_place	|	-56.0910110473633
E_score1	|	-10.0812435150146
E_refine	|	-30.5732898712158
E_score2	|	-6.76969432830811
Field_1	|	11
Field_2	|	cc-2-81
E_orig	|	1
PLIF_pronum	|	1
PLIF_raw	|	[[],[],[],[],[]]
FP:PLIF	|	
PLIF_ligidx	|	[]

# MOE 2020.09 (io_trps.svl 2020.11)

@<TRIPOS>MOLECULE
2XQJ
47 49 1 0 0 
SMALL
USER_CHARGES


@<TRIPOS>ATOM
  1 C      -18.1110   -38.5500   -23.8840 C.ar  1 <1>  -0.1710 
  2 O      -17.0160   -37.9770   -24.2290 O.3   1 <1>  -0.8290 
  3 C      -18.1610   -39.8920   -23.4160 C.ar  1 <1>  -0.1440 
  4 C      -16.9030   -40.7380   -23.2620 C.3   1 <1>   0.4870 
  5 H1     -16.7890   -41.3030   -24.1780 H     1 <1>   0.0800 
  6 H2     -17.0990   -41.4990   -22.5190 H     1 <1>   0.0800 
  7 N      -15.6370   -39.9980   -22.9460 N.4   1 <1>  -0.9590 
  8 H      -15.5610   -39.3000   -23.6770 H     1 <1>   0.4500 
  9 C      -14.3670   -40.7780   -22.9250 C.3   1 <1>   0.3430 
 10 H1     -14.5070   -41.7540   -22.4810 H     1 <1>   0.0800 
 11 H2     -13.9600   -40.9740   -23.9080 H     1 <1>   0.0800 
 12 C      -13.3600   -39.9970   -22.0700 C.3   1 <1>  -0.1600 
 13 H1     -12.9200   -40.6550   -21.3230 H     1 <1>   0.0800 
 14 H2     -12.5800   -39.5710   -22.6990 H     1 <1>   0.0800 
 15 C      -14.1650   -38.8710   -21.4060 C.3   1 <1>  -0.1600 
 16 H1     -13.9360   -37.9270   -21.9020 H     1 <1>   0.0800 
 17 H2     -13.9550   -38.7840   -20.3420 H     1 <1>   0.0800 
 18 C      -15.6260   -39.2170   -21.6850 C.3   1 <1>   0.3430 
 19 H1     -16.2410   -38.3290   -21.7180 H     1 <1>   0.0800 
 20 H2     -16.0070   -39.8010   -20.8580 H     1 <1>   0.0800 
 21 C      -19.3890   -40.4710   -23.1200 C.ar  1 <1>  -0.1500 
 22 H      -19.4240   -41.4780   -22.7920 H     1 <1>   0.1500 
 23 C      -20.5810   -39.7570   -23.2540 C.ar  1 <1>  -0.1440 
 24 C      -21.9150   -40.3900   -22.9420 C.3   1 <1>   0.4860 
 25 H1     -21.8820   -41.4320   -23.2330 H     1 <1>   0.0800 
 26 H2     -22.6410   -39.9600   -23.6200 H     1 <1>   0.0800 
 27 N      -22.3520   -40.2270   -21.5160 N.4   1 <1>  -0.9590 
 28 H      -22.0130   -39.3180   -21.2360 H     1 <1>   0.4500 
 29 C      -21.7280   -41.2470   -20.6010 C.3   1 <1>   0.3430 
 30 H1     -21.7800   -40.9100   -19.5750 H     1 <1>   0.0800 
 31 H2     -20.6660   -41.3480   -20.7830 H     1 <1>   0.0800 
 32 C      -22.3740   -42.6420   -20.6700 C.3   1 <1>  -0.1600 
 33 H1     -22.1350   -43.0900   -21.6360 H     1 <1>   0.0800 
 34 H2     -21.9440   -43.2700   -19.8890 H     1 <1>   0.0800 
 35 C      -23.9030   -42.5920   -20.5080 C.3   1 <1>  -0.1600 
 36 H1     -24.3240   -43.5800   -20.6960 H     1 <1>   0.0800 
 37 H2     -24.1590   -42.3000   -19.4890 H     1 <1>   0.0800 
 38 C      -24.5150   -41.5790   -21.4850 C.3   1 <1>  -0.1600 
 39 H1     -25.5800   -41.4710   -21.2800 H     1 <1>   0.0800 
 40 H2     -24.3950   -41.9500   -22.5040 H     1 <1>   0.0800 
 41 C      -23.8470   -40.2010   -21.3760 C.3   1 <1>   0.3430 
 42 H1     -24.1310   -39.7750   -20.4230 H     1 <1>   0.0800 
 43 H2     -24.2960   -39.5370   -22.1020 H     1 <1>   0.0800 
 44 C      -20.5310   -38.4290   -23.6720 C.ar  1 <1>  -0.1500 
 45 H      -21.4260   -37.8680   -23.7650 H     1 <1>   0.1500 
 46 C      -19.3230   -37.8340   -23.9800 C.ar  1 <1>  -0.1500 
 47 H      -19.3020   -36.8240   -24.3030 H     1 <1>   0.1500 
@<TRIPOS>BOND
  1   1   2  1   
  2   1   3  ar  
  3   1  46  ar  
  4   3   4  1   
  5   3  21  ar  
  6   4   5  1   
  7   4   6  1   
  8   4   7  1   
  9   7   8  1   
 10   7   9  1   
 11   7  18  1   
 12   9  10  1   
 13   9  11  1   
 14   9  12  1   
 15  12  13  1   
 16  12  14  1   
 17  12  15  1   
 18  15  16  1   
 19  15  17  1   
 20  15  18  1   
 21  18  19  1   
 22  18  20  1   
 23  21  22  1   
 24  21  23  ar  
 25  23  24  1   
 26  23  44  ar  
 27  24  25  1   
 28  24  26  1   
 29  24  27  1   
 30  27  28  1   
 31  27  29  1   
 32  27  41  1   
 33  29  30  1   
 34  29  31  1   
 35  29  32  1   
 36  32  33  1   
 37  32  34  1   
 38  32  35  1   
 39  35  36  1   
 40  35  37  1   
 41  35  38  1   
 42  38  39  1   
 43  38  40  1   
 44  38  41  1   
 45  41  42  1   
 46  41  43  1   
 47  44  45  1   
 48  44  46  ar  
 49  46  47  1   
@<TRIPOS>SUBSTRUCTURE
  1 ****  21 GROUP 4 **** **** 0
@<TRIPOS>PROPERTY_DATA
rseq	|	1
mseq	|	12
S	|	-6.69107913970947
rmsd_refine	|	1.97549700737
E_conf	|	-108.077964782715
E_place	|	-50.1066284179688
E_score1	|	-10.9354658126831
E_refine	|	-33.8090858459473
E_score2	|	-6.69107913970947
Field_1	|	11
Field_2	|	cc-2-81
E_orig	|	0.688484132289886
PLIF_pronum	|	1
PLIF_raw	|	[[2,1,46,44,23,21,3],[1790,6787,6787,6787,6787,6787,6787],[117,438,438,438,438,438,438],[4,10,10,10,10,10,10],[1.7,0.7,0.7,0.7,0.7,0.7,0.7]]
FP:PLIF	|	20 30 14
PLIF_ligidx	|	[2,2,[1,46,44,23,21,3]]

# MOE 2020.09 (io_trps.svl 2020.11)

@<TRIPOS>MOLECULE
2XQJ
49 50 1 0 0 
SMALL
USER_CHARGES


@<TRIPOS>ATOM
  1 C      -18.0150   -41.0250   -24.8650 C.ar  1 <1>  -0.1710 
  2 O      -16.8570   -41.4600   -25.1920 O.3   1 <1>  -0.8290 
  3 C      -18.1820   -39.9230   -23.9920 C.ar  1 <1>  -0.1440 
  4 C      -16.9780   -39.2590   -23.3600 C.3   1 <1>   0.4870 
  5 H1     -17.3150   -38.3060   -22.9800 H     1 <1>   0.0800 
  6 H2     -16.2920   -38.9890   -24.1470 H     1 <1>   0.0800 
  7 N      -16.2740   -40.0280   -22.2840 N.4   1 <1>  -0.9590 
  8 H      -16.9680   -40.5940   -21.8190 H     1 <1>   0.4500 
  9 C      -15.2150   -40.9490   -22.8150 C.3   1 <1>   0.4230 
 10 C      -15.5070   -42.4240   -22.5280 C.3   1 <1>  -0.2400 
 11 H1     -14.7010   -43.0560   -22.9020 H     1 <1>   0.0800 
 12 H2     -16.4320   -42.7380   -23.0100 H     1 <1>   0.0800 
 13 H3     -15.6270   -42.5780   -21.4580 H     1 <1>   0.0800 
 14 C      -13.8550   -40.4860   -22.2610 C.3   1 <1>  -0.1600 
 15 H1     -13.5010   -41.1830   -21.5010 H     1 <1>   0.0800 
 16 H2     -13.1170   -40.4070   -23.0570 H     1 <1>   0.0800 
 17 C      -14.1100   -39.1300   -21.6130 C.3   1 <1>  -0.1600 
 18 H1     -13.9160   -38.3370   -22.3370 H     1 <1>   0.0800 
 19 H2     -13.5050   -38.9850   -20.7180 H     1 <1>   0.0800 
 20 C      -15.5970   -39.1550   -21.2900 C.3   1 <1>   0.3430 
 21 H1     -16.0010   -38.1540   -21.2320 H     1 <1>   0.0800 
 22 H2     -15.7110   -39.5660   -20.2960 H     1 <1>   0.0800 
 23 C      -19.4500   -39.4140   -23.7490 C.ar  1 <1>  -0.1500 
 24 H      -19.5620   -38.5790   -23.1090 H     1 <1>   0.1500 
 25 C      -20.5790   -39.9690   -24.3550 C.ar  1 <1>  -0.1440 
 26 C      -21.9470   -39.3310   -24.2240 C.3   1 <1>   0.4860 
 27 H1     -22.0100   -38.8490   -23.2580 H     1 <1>   0.0800 
 28 H2     -22.6660   -40.1370   -24.1540 H     1 <1>   0.0800 
 29 N      -22.3320   -38.3770   -25.3430 N.4   1 <1>  -0.9590 
 30 H      -23.3390   -38.4470   -25.4130 H     1 <1>   0.4500 
 31 C      -22.0740   -36.9210   -25.0330 C.3   1 <1>   0.3430 
 32 H1     -22.5000   -36.3020   -25.8110 H     1 <1>   0.0800 
 33 H2     -22.6130   -36.6040   -24.1500 H     1 <1>   0.0800 
 34 C      -20.6130   -36.4950   -24.8730 C.3   1 <1>  -0.2400 
 35 H1     -20.4980   -35.4630   -25.1980 H     1 <1>   0.0800 
 36 H2     -20.3080   -36.5600   -23.8300 H     1 <1>   0.0800 
 37 H3     -19.9550   -37.1130   -25.4770 H     1 <1>   0.0800 
 38 C      -21.8000   -38.8010   -26.6970 C.3   1 <1>   0.3430 
 39 H1     -20.7190   -38.7510   -26.7190 H     1 <1>   0.0800 
 40 H2     -22.0050   -39.8490   -26.8720 H     1 <1>   0.0800 
 41 C      -22.3220   -38.0340   -27.9130 C.3   1 <1>  -0.2400 
 42 H1     -22.0470   -36.9810   -27.8680 H     1 <1>   0.0800 
 43 H2     -21.8830   -38.4640   -28.8090 H     1 <1>   0.0800 
 44 H3     -23.4020   -38.1220   -27.9960 H     1 <1>   0.0800 
 45 C      -20.4230   -41.1020   -25.1540 C.ar  1 <1>  -0.1500 
 46 H      -21.2720   -41.5600   -25.5950 H     1 <1>   0.1500 
 47 C      -19.1690   -41.6250   -25.4030 C.ar  1 <1>  -0.1500 
 48 H      -19.0640   -42.4770   -26.0250 H     1 <1>   0.1500 
 49 H      -15.1460   -40.8480   -23.8880 H     1 <1>   0.0800 
@<TRIPOS>BOND
  1   1   2  1   
  2   1   3  ar  
  3   1  47  ar  
  4   3   4  1   
  5   3  23  ar  
  6   4   5  1   
  7   4   6  1   
  8   4   7  1   
  9   7   8  1   
 10   7   9  1   
 11   7  20  1   
 12   9  10  1   
 13   9  14  1   
 14   9  49  1   
 15  10  11  1   
 16  10  12  1   
 17  10  13  1   
 18  14  15  1   
 19  14  16  1   
 20  14  17  1   
 21  17  18  1   
 22  17  19  1   
 23  17  20  1   
 24  20  21  1   
 25  20  22  1   
 26  23  24  1   
 27  23  25  ar  
 28  25  26  1   
 29  25  45  ar  
 30  26  27  1   
 31  26  28  1   
 32  26  29  1   
 33  29  30  1   
 34  29  31  1   
 35  29  38  1   
 36  31  32  1   
 37  31  33  1   
 38  31  34  1   
 39  34  35  1   
 40  34  36  1   
 41  34  37  1   
 42  38  39  1   
 43  38  40  1   
 44  38  41  1   
 45  41  42  1   
 46  41  43  1   
 47  41  44  1   
 48  45  46  1   
 49  45  47  ar  
 50  47  48  1   
@<TRIPOS>SUBSTRUCTURE
  1 ****   3 GROUP 4 **** **** 0
@<TRIPOS>PROPERTY_DATA
rseq	|	1
mseq	|	13
S	|	-6.94839572906494
rmsd_refine	|	1.51749730110168
E_conf	|	-155.782287597656
E_place	|	-61.8095932006836
E_score1	|	-10.1460914611816
E_refine	|	-32.8132247924805
E_score2	|	-6.94839572906494
Field_1	|	12
Field_2	|	cc-2-25
E_orig	|	1.88506066799164
PLIF_pronum	|	1
PLIF_raw	|	[[17,17,17,17,17,1,3,23,25,45,47],[3485,3488,3491,3489,3486,1785,1785,1785,1785,1785,1785],[231,231,231,231,231,116,116,116,116,116,116],[10,10,10,10,10,10,10,10,10,10,10],[0.5,0.5,0.5,0.5,0.5,0.5,0.5,0.5,0.5,0.5,0.5]]
FP:PLIF	|	18 31
PLIF_ligidx	|	[[1,3,23,25,45,47],[17,17,17,17,17]]

# MOE 2020.09 (io_trps.svl 2020.11)

@<TRIPOS>MOLECULE
2XQJ
49 50 1 0 0 
SMALL
USER_CHARGES


@<TRIPOS>ATOM
  1 C      -18.0140   -41.0720   -24.7670 C.ar  1 <1>  -0.1710 
  2 O      -16.9520   -41.7810   -24.8140 O.3   1 <1>  -0.8290 
  3 C      -18.1590   -39.9560   -23.9020 C.ar  1 <1>  -0.1440 
  4 C      -17.1310   -39.6340   -22.8210 C.3   1 <1>   0.4870 
  5 H1     -17.3450   -40.2720   -21.9750 H     1 <1>   0.0800 
  6 H2     -17.3800   -38.6500   -22.4480 H     1 <1>   0.0800 
  7 N      -15.6580   -39.6920   -23.1590 N.4   1 <1>  -0.9590 
  8 H      -15.5730   -39.5010   -24.1460 H     1 <1>   0.4500 
  9 C      -14.8270   -38.7290   -22.3580 C.3   1 <1>   0.4230 
 10 C      -14.3380   -37.5010   -23.1260 C.3   1 <1>  -0.2400 
 11 H1     -14.1650   -36.6870   -22.4260 H     1 <1>   0.0800 
 12 H2     -15.0750   -37.1900   -23.8640 H     1 <1>   0.0800 
 13 H3     -13.4010   -37.6950   -23.6410 H     1 <1>   0.0800 
 14 C      -13.6660   -39.5000   -21.7180 C.3   1 <1>  -0.1600 
 15 H1     -12.7550   -39.3730   -22.3040 H     1 <1>   0.0800 
 16 H2     -13.4900   -39.1750   -20.6930 H     1 <1>   0.0800 
 17 C      -14.0660   -40.9620   -21.7870 C.3   1 <1>  -0.1600 
 18 H1     -14.5880   -41.2470   -20.8770 H     1 <1>   0.0800 
 19 H2     -13.2040   -41.6000   -21.9710 H     1 <1>   0.0800 
 20 C      -15.0580   -41.0480   -22.9330 C.3   1 <1>   0.3430 
 21 H1     -15.7930   -41.8160   -22.7310 H     1 <1>   0.0800 
 22 H2     -14.5360   -41.3950   -23.8150 H     1 <1>   0.0800 
 23 C      -19.3080   -39.1730   -23.9820 C.ar  1 <1>  -0.1500 
 24 H      -19.4070   -38.3280   -23.3520 H     1 <1>   0.1500 
 25 C      -20.3490   -39.4920   -24.8630 C.ar  1 <1>  -0.1440 
 26 C      -21.6110   -38.6630   -24.9750 C.3   1 <1>   0.4860 
 27 H1     -22.0960   -38.9570   -25.8960 H     1 <1>   0.0800 
 28 H2     -21.3170   -37.6420   -25.1720 H     1 <1>   0.0800 
 29 N      -22.5960   -38.7380   -23.8270 N.4   1 <1>  -0.9590 
 30 H      -23.4420   -38.3260   -24.1990 H     1 <1>   0.4500 
 31 C      -22.9890   -40.1490   -23.4350 C.3   1 <1>   0.3430 
 32 H1     -23.9810   -40.1440   -23.0050 H     1 <1>   0.0800 
 33 H2     -23.1010   -40.7710   -24.3130 H     1 <1>   0.0800 
 34 C      -22.0920   -40.8990   -22.4370 C.3   1 <1>  -0.2400 
 35 H1     -22.5210   -41.8800   -22.2290 H     1 <1>   0.0800 
 36 H2     -22.0170   -40.3620   -21.4920 H     1 <1>   0.0800 
 37 H3     -21.0910   -41.0590   -22.8340 H     1 <1>   0.0800 
 38 C      -22.2360   -37.8700   -22.6590 C.3   1 <1>   0.3430 
 39 H1     -22.9510   -37.9990   -21.8580 H     1 <1>   0.0800 
 40 H2     -21.2990   -38.1880   -22.2250 H     1 <1>   0.0800 
 41 C      -22.1390   -36.3710   -22.9490 C.3   1 <1>  -0.2400 
 42 H1     -21.8940   -35.8320   -22.0350 H     1 <1>   0.0800 
 43 H2     -23.0860   -35.9880   -23.3270 H     1 <1>   0.0800 
 44 H3     -21.3590   -36.1610   -23.6790 H     1 <1>   0.0800 
 45 C      -20.2290   -40.6260   -25.6620 C.ar  1 <1>  -0.1500 
 46 H      -21.0140   -40.8970   -26.3220 H     1 <1>   0.1500 
 47 C      -19.0890   -41.4030   -25.6160 C.ar  1 <1>  -0.1500 
 48 H      -19.0090   -42.2590   -26.2350 H     1 <1>   0.1500 
 49 H      -15.4300   -38.3600   -21.5390 H     1 <1>   0.0800 
@<TRIPOS>BOND
  1   1   2  1   
  2   1   3  ar  
  3   1  47  ar  
  4   3   4  1   
  5   3  23  ar  
  6   4   5  1   
  7   4   6  1   
  8   4   7  1   
  9   7   8  1   
 10   7   9  1   
 11   7  20  1   
 12   9  10  1   
 13   9  14  1   
 14   9  49  1   
 15  10  11  1   
 16  10  12  1   
 17  10  13  1   
 18  14  15  1   
 19  14  16  1   
 20  14  17  1   
 21  17  18  1   
 22  17  19  1   
 23  17  20  1   
 24  20  21  1   
 25  20  22  1   
 26  23  24  1   
 27  23  25  ar  
 28  25  26  1   
 29  25  45  ar  
 30  26  27  1   
 31  26  28  1   
 32  26  29  1   
 33  29  30  1   
 34  29  31  1   
 35  29  38  1   
 36  31  32  1   
 37  31  33  1   
 38  31  34  1   
 39  34  35  1   
 40  34  36  1   
 41  34  37  1   
 42  38  39  1   
 43  38  40  1   
 44  38  41  1   
 45  41  42  1   
 46  41  43  1   
 47  41  44  1   
 48  45  46  1   
 49  45  47  ar  
 50  47  48  1   
@<TRIPOS>SUBSTRUCTURE
  1 ****   3 GROUP 4 **** **** 0
@<TRIPOS>PROPERTY_DATA
rseq	|	1
mseq	|	13
S	|	-6.91297197341919
rmsd_refine	|	1.91654574871063
E_conf	|	-152.688323974609
E_place	|	-45.4245376586914
E_score1	|	-9.6749963760376
E_refine	|	-30.3575325012207
E_score2	|	-6.91297197341919
Field_1	|	12
Field_2	|	cc-2-25
E_orig	|	0.619535505771637
PLIF_pronum	|	1
PLIF_raw	|	[[31,31,31,31,31,41,41,41,41,41,41],[1242,1245,1248,1246,1243,1245,1249,1253,1255,1251,1248],[82,82,82,82,82,82,82,82,82,82,82],[10,10,10,10,10,10,10,10,10,10,10],[0.7,0.7,0.7,0.7,0.7,0.9,0.9,0.9,0.9,0.9,0.9]]
FP:PLIF	|	2
PLIF_ligidx	|	[[31,31,31,31,31,41,41,41,41,41,41]]

# MOE 2020.09 (io_trps.svl 2020.11)

@<TRIPOS>MOLECULE
2XQJ
49 50 1 0 0 
SMALL
USER_CHARGES


@<TRIPOS>ATOM
  1 C      -20.0530   -39.5220   -23.3650 C.ar  1 <1>  -0.1710 
  2 O      -19.4710   -38.8250   -22.4530 O.3   1 <1>  -0.8290 
  3 C      -21.4620   -39.6520   -23.4110 C.ar  1 <1>  -0.1440 
  4 C      -22.3010   -39.0290   -22.3160 C.3   1 <1>   0.4870 
  5 H1     -23.2220   -38.6790   -22.7630 H     1 <1>   0.0800 
  6 H2     -21.8040   -38.1150   -22.0220 H     1 <1>   0.0800 
  7 N      -22.5860   -39.9060   -21.1080 N.4   1 <1>  -0.9590 
  8 H      -22.9690   -39.3060   -20.3930 H     1 <1>   0.4500 
  9 C      -23.5930   -40.9820   -21.3810 C.3   1 <1>   0.4230 
 10 C      -24.9170   -40.7620   -20.6420 C.3   1 <1>  -0.2400 
 11 H1     -25.2910   -39.7600   -20.8410 H     1 <1>   0.0800 
 12 H2     -24.7860   -40.8690   -19.5650 H     1 <1>   0.0800 
 13 H3     -25.6610   -41.4800   -20.9790 H     1 <1>   0.0800 
 14 C      -22.9530   -42.3440   -21.0550 C.3   1 <1>  -0.1600 
 15 H1     -23.3560   -42.7360   -20.1200 H     1 <1>   0.0800 
 16 H2     -23.1310   -43.0630   -21.8560 H     1 <1>   0.0800 
 17 C      -21.4600   -42.0750   -20.8780 C.3   1 <1>  -0.1600 
 18 H1     -20.9460   -42.2470   -21.8250 H     1 <1>   0.0800 
 19 H2     -21.0220   -42.6930   -20.0940 H     1 <1>   0.0800 
 20 C      -21.3740   -40.5890   -20.5420 C.3   1 <1>   0.3430 
 21 H1     -20.4350   -40.1790   -20.8870 H     1 <1>   0.0800 
 22 H2     -21.3380   -40.4870   -19.4660 H     1 <1>   0.0800 
 23 C      -22.0670   -40.3590   -24.4400 C.ar  1 <1>  -0.1500 
 24 H      -23.1230   -40.4350   -24.4670 H     1 <1>   0.1500 
 25 C      -21.3100   -40.9770   -25.4350 C.ar  1 <1>  -0.1440 
 26 C      -21.9950   -41.7310   -26.5520 C.3   1 <1>   0.4860 
 27 H1     -23.0610   -41.6680   -26.3920 H     1 <1>   0.0800 
 28 H2     -21.7850   -42.7790   -26.3850 H     1 <1>   0.0800 
 29 N      -21.6400   -41.3370   -27.9710 N.4   1 <1>  -0.9590 
 30 H      -20.6320   -41.3900   -28.0410 H     1 <1>   0.4500 
 31 C      -22.1960   -42.3010   -28.9870 C.3   1 <1>   0.3430 
 32 H1     -23.2540   -42.1400   -29.1350 H     1 <1>   0.0800 
 33 H2     -21.7780   -42.1030   -29.9650 H     1 <1>   0.0800 
 34 C      -22.0180   -43.7880   -28.6950 C.3   1 <1>  -0.2400 
 35 H1     -22.1850   -44.3670   -29.6030 H     1 <1>   0.0800 
 36 H2     -22.7510   -44.0900   -27.9530 H     1 <1>   0.0800 
 37 H3     -21.0260   -44.0110   -28.3090 H     1 <1>   0.0800 
 38 C      -22.0220   -39.9290   -28.3450 C.3   1 <1>   0.3430 
 39 H1     -22.1490   -39.8560   -29.4170 H     1 <1>   0.0800 
 40 H2     -22.9990   -39.6800   -27.9740 H     1 <1>   0.0800 
 41 C      -21.1000   -38.7890   -27.9510 C.3   1 <1>  -0.2400 
 42 H1     -21.5630   -37.8390   -28.2190 H     1 <1>   0.0800 
 43 H2     -20.1810   -38.8810   -28.5140 H     1 <1>   0.0800 
 44 H3     -20.8930   -38.7690   -26.8830 H     1 <1>   0.0800 
 45 C      -19.9190   -40.8990   -25.3660 C.ar  1 <1>  -0.1500 
 46 H      -19.3260   -41.3860   -26.0970 H     1 <1>   0.1500 
 47 C      -19.2990   -40.1850   -24.3550 C.ar  1 <1>  -0.1500 
 48 H      -18.2420   -40.1270   -24.3190 H     1 <1>   0.1500 
 49 H      -23.8240   -40.9950   -22.4380 H     1 <1>   0.0800 
@<TRIPOS>BOND
  1   1   2  1   
  2   1   3  ar  
  3   1  47  ar  
  4   3   4  1   
  5   3  23  ar  
  6   4   5  1   
  7   4   6  1   
  8   4   7  1   
  9   7   8  1   
 10   7   9  1   
 11   7  20  1   
 12   9  10  1   
 13   9  14  1   
 14   9  49  1   
 15  10  11  1   
 16  10  12  1   
 17  10  13  1   
 18  14  15  1   
 19  14  16  1   
 20  14  17  1   
 21  17  18  1   
 22  17  19  1   
 23  17  20  1   
 24  20  21  1   
 25  20  22  1   
 26  23  24  1   
 27  23  25  ar  
 28  25  26  1   
 29  25  45  ar  
 30  26  27  1   
 31  26  28  1   
 32  26  29  1   
 33  29  30  1   
 34  29  31  1   
 35  29  38  1   
 36  31  32  1   
 37  31  33  1   
 38  31  34  1   
 39  34  35  1   
 40  34  36  1   
 41  34  37  1   
 42  38  39  1   
 43  38  40  1   
 44  38  41  1   
 45  41  42  1   
 46  41  43  1   
 47  41  44  1   
 48  45  46  1   
 49  45  47  ar  
 50  47  48  1   
@<TRIPOS>SUBSTRUCTURE
  1 ****  23 GROUP 4 **** **** 0
@<TRIPOS>PROPERTY_DATA
rseq	|	1
mseq	|	13
S	|	-6.88044548034668
rmsd_refine	|	1.85003185272217
E_conf	|	-158.888702392578
E_place	|	-65.7621078491211
E_score1	|	-9.77279281616211
E_refine	|	-36.1240005493164
E_score2	|	-6.88044548034668
Field_1	|	12
Field_2	|	cc-2-25
E_orig	|	2.08491611480713
PLIF_pronum	|	1
PLIF_raw	|	[[29,2,4,4,4,4,4,4,4,4,4,4,4],[1842,6787,1245,1248,1246,1243,1242,1245,1249,1253,1255,1251,1248],[120,438,82,82,82,82,82,82,82,82,82,82,82],[1,7,10,10,10,10,10,10,10,10,10,10,10],[5,3.741675532,0.5,0.5,0.5,0.5,0.5,0.5,0.5,0.5,0.5,0.5,0.5]]
FP:PLIF	|	2 17 19 4 11
PLIF_ligidx	|	[[4,4,4,4,4,4,4,4,4,4,4],29,29,2,2]

# MOE 2020.09 (io_trps.svl 2020.11)

@<TRIPOS>MOLECULE
2XQJ
49 50 1 0 0 
SMALL
USER_CHARGES


@<TRIPOS>ATOM
  1 C      -20.5960   -39.7680   -21.7110 C.ar  1 <1>  -0.1710 
  2 O      -20.5700   -40.2990   -20.5460 O.3   1 <1>  -0.8290 
  3 C      -21.8230   -39.5210   -22.3620 C.ar  1 <1>  -0.1440 
  4 C      -23.1130   -39.8720   -21.6640 C.3   1 <1>   0.4870 
  5 H1     -23.7850   -39.0290   -21.7500 H     1 <1>   0.0800 
  6 H2     -22.8990   -39.9180   -20.6040 H     1 <1>   0.0800 
  7 N      -23.7690   -41.1370   -22.1250 N.4   1 <1>  -0.9590 
  8 H      -24.2760   -40.9400   -22.9750 H     1 <1>   0.4500 
  9 C      -22.7840   -42.2340   -22.3950 C.3   1 <1>   0.4230 
 10 C      -23.1910   -43.1080   -23.5900 C.3   1 <1>  -0.2400 
 11 H1     -22.4600   -43.9020   -23.7470 H     1 <1>   0.0800 
 12 H2     -23.2380   -42.5080   -24.4990 H     1 <1>   0.0800 
 13 H3     -24.1670   -43.5670   -23.4280 H     1 <1>   0.0800 
 14 C      -22.6830   -43.0330   -21.0980 C.3   1 <1>  -0.1600 
 15 H1     -22.3690   -44.0570   -21.2780 H     1 <1>   0.0800 
 16 H2     -21.9580   -42.5460   -20.4450 H     1 <1>   0.0800 
 17 C      -24.0710   -42.9270   -20.4680 C.3   1 <1>  -0.1600 
 18 H1     -24.0170   -42.8630   -19.3820 H     1 <1>   0.0800 
 19 H2     -24.6620   -43.7910   -20.7590 H     1 <1>   0.0800 
 20 C      -24.6970   -41.6720   -21.0830 C.3   1 <1>   0.3430 
 21 H1     -24.9020   -40.9510   -20.3030 H     1 <1>   0.0800 
 22 H2     -25.6650   -41.9200   -21.4950 H     1 <1>   0.0800 
 23 C      -21.8460   -38.9790   -23.6310 C.ar  1 <1>  -0.1500 
 24 H      -22.7800   -38.8490   -24.1120 H     1 <1>   0.1500 
 25 C      -20.6670   -38.5780   -24.2610 C.ar  1 <1>  -0.1440 
 26 C      -20.7020   -37.8950   -25.6040 C.3   1 <1>   0.4860 
 27 H1     -20.4870   -38.6540   -26.3420 H     1 <1>   0.0800 
 28 H2     -19.8550   -37.2260   -25.6630 H     1 <1>   0.0800 
 29 N      -21.9750   -37.1730   -25.9290 N.4   1 <1>  -0.9590 
 30 H      -22.7180   -37.7620   -25.5800 H     1 <1>   0.4500 
 31 C      -22.1210   -35.8520   -25.2050 C.3   1 <1>   0.3430 
 32 H1     -21.2490   -35.2280   -25.3450 H     1 <1>   0.0800 
 33 H2     -22.9190   -35.2770   -25.6520 H     1 <1>   0.0800 
 34 C      -22.4310   -35.9170   -23.7030 C.3   1 <1>  -0.2400 
 35 H1     -22.7320   -34.9360   -23.3430 H     1 <1>   0.0800 
 36 H2     -21.5540   -36.2230   -23.1330 H     1 <1>   0.0800 
 37 H3     -23.2490   -36.6040   -23.4960 H     1 <1>   0.0800 
 38 C      -22.2150   -37.0610   -27.4080 C.3   1 <1>   0.3430 
 39 H1     -23.2020   -36.6640   -27.5940 H     1 <1>   0.0800 
 40 H2     -21.5660   -36.3240   -27.8600 H     1 <1>   0.0800 
 41 C      -22.0940   -38.3580   -28.2110 C.3   1 <1>  -0.2400 
 42 H1     -22.6530   -38.2660   -29.1400 H     1 <1>   0.0800 
 43 H2     -22.4980   -39.2030   -27.6610 H     1 <1>   0.0800 
 44 H3     -21.0510   -38.5730   -28.4470 H     1 <1>   0.0800 
 45 C      -19.4490   -38.8020   -23.6220 C.ar  1 <1>  -0.1500 
 46 H      -18.5430   -38.5140   -24.0910 H     1 <1>   0.1500 
 47 C      -19.4070   -39.3980   -22.3750 C.ar  1 <1>  -0.1500 
 48 H      -18.4760   -39.5750   -21.9030 H     1 <1>   0.1500 
 49 H      -21.7980   -41.8550   -22.6220 H     1 <1>   0.0800 
@<TRIPOS>BOND
  1   1   2  1   
  2   1   3  ar  
  3   1  47  ar  
  4   3   4  1   
  5   3  23  ar  
  6   4   5  1   
  7   4   6  1   
  8   4   7  1   
  9   7   8  1   
 10   7   9  1   
 11   7  20  1   
 12   9  10  1   
 13   9  14  1   
 14   9  49  1   
 15  10  11  1   
 16  10  12  1   
 17  10  13  1   
 18  14  15  1   
 19  14  16  1   
 20  14  17  1   
 21  17  18  1   
 22  17  19  1   
 23  17  20  1   
 24  20  21  1   
 25  20  22  1   
 26  23  24  1   
 27  23  25  ar  
 28  25  26  1   
 29  25  45  ar  
 30  26  27  1   
 31  26  28  1   
 32  26  29  1   
 33  29  30  1   
 34  29  31  1   
 35  29  38  1   
 36  31  32  1   
 37  31  33  1   
 38  31  34  1   
 39  34  35  1   
 40  34  36  1   
 41  34  37  1   
 42  38  39  1   
 43  38  40  1   
 44  38  41  1   
 45  41  42  1   
 46  41  43  1   
 47  41  44  1   
 48  45  46  1   
 49  45  47  ar  
 50  47  48  1   
@<TRIPOS>SUBSTRUCTURE
  1 ****  23 GROUP 4 **** **** 0
@<TRIPOS>PROPERTY_DATA
rseq	|	1
mseq	|	13
S	|	-6.76771211624146
rmsd_refine	|	1.32873034477234
E_conf	|	-156.244415283203
E_place	|	-46.9901924133301
E_score1	|	-9.84218692779541
E_refine	|	-29.4517765045166
E_score2	|	-6.76771211624146
Field_1	|	12
Field_2	|	cc-2-25
E_orig	|	0.632820129394531
PLIF_pronum	|	1
PLIF_raw	|	[[23,23,23,23,23],[1242,1245,1248,1246,1243],[82,82,82,82,82],[10,10,10,10,10],[0.6,0.6,0.6,0.6,0.6]]
FP:PLIF	|	2
PLIF_ligidx	|	[[23,23,23,23,23]]

# MOE 2020.09 (io_trps.svl 2020.11)

@<TRIPOS>MOLECULE
2XQJ
49 50 1 0 0 
SMALL
USER_CHARGES


@<TRIPOS>ATOM
  1 C      -20.1460   -39.9810   -23.3450 C.ar  1 <1>  -0.1710 
  2 O      -19.7920   -39.7710   -22.1260 O.3   1 <1>  -0.8290 
  3 C      -21.4450   -39.6600   -23.7940 C.ar  1 <1>  -0.1440 
  4 C      -22.5070   -39.2680   -22.8080 C.3   1 <1>   0.4870 
  5 H1     -23.3280   -38.8070   -23.3420 H     1 <1>   0.0800 
  6 H2     -22.1130   -38.4820   -22.1790 H     1 <1>   0.0800 
  7 N      -22.9590   -40.4460   -22.0050 N.4   1 <1>  -0.9590 
  8 H      -22.1310   -40.7570   -21.5120 H     1 <1>   0.4500 
  9 C      -23.9890   -40.1620   -20.9860 C.3   1 <1>   0.4230 
 10 C      -23.3720   -39.6310   -19.7040 C.3   1 <1>  -0.2400 
 11 H1     -24.1050   -39.5600   -18.9000 H     1 <1>   0.0800 
 12 H2     -22.9620   -38.6520   -19.9100 H     1 <1>   0.0800 
 13 H3     -22.5350   -40.2560   -19.4050 H     1 <1>   0.0800 
 14 C      -24.8270   -41.4370   -20.7950 C.3   1 <1>  -0.1600 
 15 H1     -24.6700   -41.8750   -19.8070 H     1 <1>   0.0800 
 16 H2     -25.8810   -41.1920   -20.9240 H     1 <1>   0.0800 
 17 C      -24.3700   -42.4220   -21.8780 C.3   1 <1>  -0.1600 
 18 H1     -25.2090   -42.8250   -22.4450 H     1 <1>   0.0800 
 19 H2     -23.8060   -43.2330   -21.4160 H     1 <1>   0.0800 
 20 C      -23.4350   -41.6220   -22.7790 C.3   1 <1>   0.3430 
 21 H1     -23.9820   -41.3170   -23.6600 H     1 <1>   0.0800 
 22 H2     -22.6320   -42.2460   -23.1480 H     1 <1>   0.0800 
 23 C      -21.8090   -39.8520   -25.1100 C.ar  1 <1>  -0.1500 
 24 H      -22.7790   -39.5740   -25.4100 H     1 <1>   0.1500 
 25 C      -20.9440   -40.4470   -26.0200 C.ar  1 <1>  -0.1440 
 26 C      -21.4500   -40.7370   -27.4170 C.3   1 <1>   0.4860 
 27 H1     -20.7650   -40.2850   -28.1200 H     1 <1>   0.0800 
 28 H2     -22.3530   -40.1580   -27.5570 H     1 <1>   0.0800 
 29 N      -21.7030   -42.1920   -27.7490 N.4   1 <1>  -0.9590 
 30 H      -20.7960   -42.6360   -27.7960 H     1 <1>   0.4500 
 31 C      -22.5060   -42.9230   -26.6970 C.3   1 <1>   0.3430 
 32 H1     -23.2530   -42.2760   -26.2590 H     1 <1>   0.0800 
 33 H2     -23.0970   -43.7050   -27.1580 H     1 <1>   0.0800 
 34 C      -21.7140   -43.5810   -25.5610 C.3   1 <1>  -0.2400 
 35 H1     -21.2570   -42.8460   -24.9030 H     1 <1>   0.0800 
 36 H2     -22.3810   -44.1870   -24.9490 H     1 <1>   0.0800 
 37 H3     -20.9320   -44.2260   -25.9610 H     1 <1>   0.0800 
 38 C      -22.3360   -42.3360   -29.1050 C.3   1 <1>   0.3430 
 39 H1     -23.4040   -42.1910   -29.0260 H     1 <1>   0.0800 
 40 H2     -22.0180   -41.5480   -29.7760 H     1 <1>   0.0800 
 41 C      -22.1210   -43.6730   -29.8160 C.3   1 <1>  -0.2400 
 42 H1     -22.8340   -43.7790   -30.6320 H     1 <1>   0.0800 
 43 H2     -22.2600   -44.4980   -29.1230 H     1 <1>   0.0800 
 44 H3     -21.1310   -43.7410   -30.2520 H     1 <1>   0.0800 
 45 C      -19.6680   -40.8140   -25.5830 C.ar  1 <1>  -0.1500 
 46 H      -18.9970   -41.2900   -26.2480 H     1 <1>   0.1500 
 47 C      -19.2660   -40.5680   -24.2790 C.ar  1 <1>  -0.1500 
 48 H      -18.2910   -40.8390   -23.9650 H     1 <1>   0.1500 
 49 H      -24.6690   -39.4040   -21.3510 H     1 <1>   0.0800 
@<TRIPOS>BOND
  1   1   2  1   
  2   1   3  ar  
  3   1  47  ar  
  4   3   4  1   
  5   3  23  ar  
  6   4   5  1   
  7   4   6  1   
  8   4   7  1   
  9   7   8  1   
 10   7   9  1   
 11   7  20  1   
 12   9  10  1   
 13   9  14  1   
 14   9  49  1   
 15  10  11  1   
 16  10  12  1   
 17  10  13  1   
 18  14  15  1   
 19  14  16  1   
 20  14  17  1   
 21  17  18  1   
 22  17  19  1   
 23  17  20  1   
 24  20  21  1   
 25  20  22  1   
 26  23  24  1   
 27  23  25  ar  
 28  25  26  1   
 29  25  45  ar  
 30  26  27  1   
 31  26  28  1   
 32  26  29  1   
 33  29  30  1   
 34  29  31  1   
 35  29  38  1   
 36  31  32  1   
 37  31  33  1   
 38  31  34  1   
 39  34  35  1   
 40  34  36  1   
 41  34  37  1   
 42  38  39  1   
 43  38  40  1   
 44  38  41  1   
 45  41  42  1   
 46  41  43  1   
 47  41  44  1   
 48  45  46  1   
 49  45  47  ar  
 50  47  48  1   
@<TRIPOS>SUBSTRUCTURE
  1 ****  23 GROUP 4 **** **** 0
@<TRIPOS>PROPERTY_DATA
rseq	|	1
mseq	|	13
S	|	-6.73607110977173
rmsd_refine	|	1.46481001377106
E_conf	|	-157.499603271484
E_place	|	-61.0179977416992
E_score1	|	-9.72611236572266
E_refine	|	-32.3925933837891
E_score2	|	-6.73607110977173
Field_1	|	12
Field_2	|	cc-2-25
E_orig	|	1.88013982772827
PLIF_pronum	|	1
PLIF_raw	|	[[2,4,4,4,4,4,4,4,4,4,4,4],[6787,1242,1245,1248,1246,1243,1245,1249,1253,1255,1251,1248],[438,82,82,82,82,82,82,82,82,82,82,82],[7,10,10,10,10,10,10,10,10,10,10,10],[1.081281517,0.8,0.8,0.8,0.8,0.8,0.7,0.7,0.7,0.7,0.7,0.7]]
FP:PLIF	|	2 4
PLIF_ligidx	|	[[4,4,4,4,4,4,4,4,4,4,4],2]

# MOE 2020.09 (io_trps.svl 2020.11)

@<TRIPOS>MOLECULE
2XQJ
47 49 1 0 0 
SMALL
USER_CHARGES


@<TRIPOS>ATOM
  1 C      -20.3390   -38.7820   -23.2730 C.ar  1 <1>  -0.1710 
  2 O      -21.4280   -38.1240   -23.1160 O.3   1 <1>  -0.8290 
  3 C      -20.3040   -40.1830   -23.1130 C.ar  1 <1>  -0.1440 
  4 C      -21.6070   -40.9070   -22.8790 C.3   1 <1>   0.4870 
  5 H1     -21.4960   -41.9340   -23.2000 H     1 <1>   0.0800 
  6 H2     -22.3320   -40.4940   -23.5700 H     1 <1>   0.0800 
  7 N      -22.1050   -40.8220   -21.4720 N.4   1 <1>  -0.9590 
  8 H      -22.0440   -39.8440   -21.2170 H     1 <1>   0.4500 
  9 C      -23.5210   -41.2830   -21.3380 C.3   1 <1>   0.4230 
 10 C      -24.4220   -40.2660   -20.6260 C.3   1 <1>  -0.2400 
 11 H1     -25.4480   -40.6330   -20.5820 H     1 <1>   0.0800 
 12 H2     -24.4190   -39.3180   -21.1660 H     1 <1>   0.0800 
 13 H3     -24.0740   -40.0810   -19.6090 H     1 <1>   0.0800 
 14 C      -23.5020   -42.6520   -20.6270 C.3   1 <1>  -0.1600 
 15 H1     -24.0360   -42.6020   -19.6770 H     1 <1>   0.0800 
 16 H2     -23.9630   -43.4100   -21.2600 H     1 <1>   0.0800 
 17 C      -22.0260   -42.9820   -20.3770 C.3   1 <1>  -0.1600 
 18 H1     -21.6740   -43.6690   -21.1480 H     1 <1>   0.0800 
 19 H2     -21.8580   -43.4120   -19.3900 H     1 <1>   0.0800 
 20 C      -21.3000   -41.6530   -20.5390 C.3   1 <1>   0.3430 
 21 H1     -20.2790   -41.8090   -20.8600 H     1 <1>   0.0800 
 22 H2     -21.2220   -41.1830   -19.5670 H     1 <1>   0.0800 
 23 C      -19.0980   -40.8660   -23.1450 C.ar  1 <1>  -0.1500 
 24 H      -19.0870   -41.9140   -22.9820 H     1 <1>   0.1500 
 25 C      -17.8980   -40.1950   -23.3850 C.ar  1 <1>  -0.1440 
 26 C      -16.5880   -40.9590   -23.3340 C.3   1 <1>   0.4860 
 27 H1     -16.4680   -41.4720   -24.2790 H     1 <1>   0.0800 
 28 H2     -16.7030   -41.7620   -22.6180 H     1 <1>   0.0800 
 29 N      -15.3780   -40.1280   -23.0140 N.4   1 <1>  -0.9590 
 30 H      -15.2720   -39.4650   -23.7660 H     1 <1>   0.4500 
 31 C      -15.4540   -39.3250   -21.7590 C.3   1 <1>   0.3430 
 32 H1     -16.1000   -38.4600   -21.8250 H     1 <1>   0.0800 
 33 H2     -15.8480   -39.9130   -20.9410 H     1 <1>   0.0800 
 34 C      -14.0270   -38.9150   -21.4160 C.3   1 <1>  -0.1600 
 35 H1     -13.8180   -37.9590   -21.8980 H     1 <1>   0.0800 
 36 H2     -13.8690   -38.8240   -20.3440 H     1 <1>   0.0800 
 37 C      -13.1450   -40.0010   -22.0450 C.3   1 <1>  -0.1600 
 38 H1     -12.6720   -40.6150   -21.2810 H     1 <1>   0.0800 
 39 H2     -12.3870   -39.5330   -22.6690 H     1 <1>   0.0800 
 40 C      -14.0810   -40.8570   -22.9070 C.3   1 <1>   0.3430 
 41 H1     -14.2040   -41.8190   -22.4250 H     1 <1>   0.0800 
 42 H2     -13.6250   -41.0790   -23.8630 H     1 <1>   0.0800 
 43 C      -17.9440   -38.8230   -23.6580 C.ar  1 <1>  -0.1500 
 44 H      -17.0590   -38.2970   -23.8990 H     1 <1>   0.1500 
 45 C      -19.1370   -38.1260   -23.5990 C.ar  1 <1>  -0.1500 
 46 H      -19.1570   -37.0830   -23.7890 H     1 <1>   0.1500 
 47 H      -23.9520   -41.4390   -22.3190 H     1 <1>   0.0800 
@<TRIPOS>BOND
  1   1   2  1   
  2   1   3  ar  
  3   1  45  ar  
  4   3   4  1   
  5   3  23  ar  
  6   4   5  1   
  7   4   6  1   
  8   4   7  1   
  9   7   8  1   
 10   7   9  1   
 11   7  20  1   
 12   9  10  1   
 13   9  14  1   
 14   9  47  1   
 15  10  11  1   
 16  10  12  1   
 17  10  13  1   
 18  14  15  1   
 19  14  16  1   
 20  14  17  1   
 21  17  18  1   
 22  17  19  1   
 23  17  20  1   
 24  20  21  1   
 25  20  22  1   
 26  23  24  1   
 27  23  25  ar  
 28  25  26  1   
 29  25  43  ar  
 30  26  27  1   
 31  26  28  1   
 32  26  29  1   
 33  29  30  1   
 34  29  31  1   
 35  29  40  1   
 36  31  32  1   
 37  31  33  1   
 38  31  34  1   
 39  34  35  1   
 40  34  36  1   
 41  34  37  1   
 42  37  38  1   
 43  37  39  1   
 44  37  40  1   
 45  40  41  1   
 46  40  42  1   
 47  43  44  1   
 48  43  45  ar  
 49  45  46  1   
@<TRIPOS>SUBSTRUCTURE
  1 ****  23 GROUP 4 **** **** 0
@<TRIPOS>PROPERTY_DATA
rseq	|	1
mseq	|	14
S	|	-6.92673397064209
rmsd_refine	|	1.49398338794708
E_conf	|	-123.947959899902
E_place	|	-76.3941421508789
E_score1	|	-9.53792381286621
E_refine	|	-36.3464736938477
E_score2	|	-6.92673397064209
Field_1	|	13
Field_2	|	cc-2-64
E_orig	|	0.400000005960464
PLIF_pronum	|	1
PLIF_raw	|	[2,6787,438,7,0.9193524079]
FP:PLIF	|	4
PLIF_ligidx	|	2

# MOE 2020.09 (io_trps.svl 2020.11)

@<TRIPOS>MOLECULE
2XQJ
47 49 1 0 0 
SMALL
USER_CHARGES


@<TRIPOS>ATOM
  1 C      -18.0550   -40.8630   -24.5720 C.ar  1 <1>  -0.1710 
  2 O      -16.9160   -41.2580   -25.0000 O.3   1 <1>  -0.8290 
  3 C      -18.2120   -40.0110   -23.4440 C.ar  1 <1>  -0.1440 
  4 C      -17.0620   -39.5660   -22.5500 C.3   1 <1>   0.4870 
  5 H1     -17.1740   -40.0790   -21.6060 H     1 <1>   0.0800 
  6 H2     -17.2690   -38.5380   -22.2870 H     1 <1>   0.0800 
  7 N      -15.6450   -39.6860   -23.0340 N.4   1 <1>  -0.9590 
  8 H      -15.6560   -39.4900   -24.0260 H     1 <1>   0.4500 
  9 C      -14.7110   -38.7650   -22.3100 C.3   1 <1>   0.4230 
 10 C      -14.2940   -37.5220   -23.0950 C.3   1 <1>  -0.2400 
 11 H1     -14.1330   -36.7010   -22.4010 H     1 <1>   0.0800 
 12 H2     -15.0650   -37.2390   -23.8100 H     1 <1>   0.0800 
 13 H3     -13.3690   -37.6830   -23.6420 H     1 <1>   0.0800 
 14 C      -13.5140   -39.5820   -21.8130 C.3   1 <1>  -0.1600 
 15 H1     -12.6660   -39.4710   -22.4900 H     1 <1>   0.0800 
 16 H2     -13.2260   -39.2870   -20.8040 H     1 <1>   0.0800 
 17 C      -13.9730   -41.0290   -21.8560 C.3   1 <1>  -0.1600 
 18 H1     -14.4050   -41.2990   -20.8970 H     1 <1>   0.0800 
 19 H2     -13.1610   -41.6970   -22.1370 H     1 <1>   0.0800 
 20 C      -15.0870   -41.0660   -22.8840 C.3   1 <1>   0.3430 
 21 H1     -15.8300   -41.8040   -22.6120 H     1 <1>   0.0800 
 22 H2     -14.6790   -41.4230   -23.8210 H     1 <1>   0.0800 
 23 C      -19.4820   -39.5710   -23.0900 C.ar  1 <1>  -0.1500 
 24 H      -19.5950   -38.9250   -22.2580 H     1 <1>   0.1500 
 25 C      -20.6180   -39.9700   -23.7960 C.ar  1 <1>  -0.1440 
 26 C      -21.9930   -39.4500   -23.4310 C.3   1 <1>   0.4860 
 27 H1     -22.0210   -39.2960   -22.3610 H     1 <1>   0.0800 
 28 H2     -22.6960   -40.2570   -23.5920 H     1 <1>   0.0800 
 29 N      -22.4320   -38.2100   -24.1690 N.4   1 <1>  -0.9590 
 30 H      -23.4080   -38.0540   -23.9550 H     1 <1>   0.4500 
 31 C      -21.6860   -36.9610   -23.7910 C.3   1 <1>   0.3430 
 32 H1     -22.2330   -36.3210   -23.1100 H     1 <1>   0.0800 
 33 H2     -20.7640   -37.1920   -23.2760 H     1 <1>   0.0800 
 34 C      -21.3380   -36.1970   -25.0690 C.3   1 <1>  -0.1600 
 35 H1     -22.1020   -35.4390   -25.2420 H     1 <1>   0.0800 
 36 H2     -20.3530   -35.7340   -25.0050 H     1 <1>   0.0800 
 37 C      -21.3910   -37.2400   -26.1790 C.3   1 <1>  -0.1600 
 38 H1     -20.4060   -37.6840   -26.3030 H     1 <1>   0.0800 
 39 H2     -21.7440   -36.8190   -27.1220 H     1 <1>   0.0800 
 40 C      -22.3230   -38.3270   -25.6630 C.3   1 <1>   0.3430 
 41 H1     -21.9770   -39.2930   -26.0020 H     1 <1>   0.0800 
 42 H2     -23.2800   -38.2130   -26.1430 H     1 <1>   0.0800 
 43 C      -20.4680   -40.8490   -24.8650 C.ar  1 <1>  -0.1500 
 44 H      -21.3190   -41.1870   -25.3990 H     1 <1>   0.1500 
 45 C      -19.2160   -41.2850   -25.2500 C.ar  1 <1>  -0.1500 
 46 H      -19.1170   -41.9460   -26.0720 H     1 <1>   0.1500 
 47 H      -15.2130   -38.4060   -21.4210 H     1 <1>   0.0800 
@<TRIPOS>BOND
  1   1   2  1   
  2   1   3  ar  
  3   1  45  ar  
  4   3   4  1   
  5   3  23  ar  
  6   4   5  1   
  7   4   6  1   
  8   4   7  1   
  9   7   8  1   
 10   7   9  1   
 11   7  20  1   
 12   9  10  1   
 13   9  14  1   
 14   9  47  1   
 15  10  11  1   
 16  10  12  1   
 17  10  13  1   
 18  14  15  1   
 19  14  16  1   
 20  14  17  1   
 21  17  18  1   
 22  17  19  1   
 23  17  20  1   
 24  20  21  1   
 25  20  22  1   
 26  23  24  1   
 27  23  25  ar  
 28  25  26  1   
 29  25  43  ar  
 30  26  27  1   
 31  26  28  1   
 32  26  29  1   
 33  29  30  1   
 34  29  31  1   
 35  29  40  1   
 36  31  32  1   
 37  31  33  1   
 38  31  34  1   
 39  34  35  1   
 40  34  36  1   
 41  34  37  1   
 42  37  38  1   
 43  37  39  1   
 44  37  40  1   
 45  40  41  1   
 46  40  42  1   
 47  43  44  1   
 48  43  45  ar  
 49  45  46  1   
@<TRIPOS>SUBSTRUCTURE
  1 ****   3 GROUP 4 **** **** 0
@<TRIPOS>PROPERTY_DATA
rseq	|	1
mseq	|	14
S	|	-6.90755462646484
rmsd_refine	|	1.51939225196838
E_conf	|	-118.665794372559
E_place	|	-55.5060424804688
E_score1	|	-9.6357307434082
E_refine	|	-30.0411319732666
E_score2	|	-6.90755462646484
Field_1	|	13
Field_2	|	cc-2-64
E_orig	|	2.43454480171204
PLIF_pronum	|	1
PLIF_raw	|	[[],[],[],[],[]]
FP:PLIF	|	
PLIF_ligidx	|	[]

# MOE 2020.09 (io_trps.svl 2020.11)

@<TRIPOS>MOLECULE
2XQJ
47 49 1 0 0 
SMALL
USER_CHARGES


@<TRIPOS>ATOM
  1 C      -22.9500   -39.3950   -20.9500 C.ar  1 <1>  -0.1710 
  2 O      -23.4810   -39.8750   -19.8840 O.3   1 <1>  -0.8290 
  3 C      -21.8690   -40.0420   -21.5910 C.ar  1 <1>  -0.1440 
  4 C      -21.4520   -41.4050   -21.0840 C.3   1 <1>   0.4870 
  5 H1     -21.7470   -41.4650   -20.0450 H     1 <1>   0.0800 
  6 H2     -20.3720   -41.4410   -21.0420 H     1 <1>   0.0800 
  7 N      -22.0140   -42.5740   -21.8620 N.4   1 <1>  -0.9590 
  8 H      -22.1760   -43.3220   -21.2030 H     1 <1>   0.4500 
  9 C      -23.3320   -42.3090   -22.5430 C.3   1 <1>   0.4230 
 10 C      -24.5560   -42.6200   -21.6850 C.3   1 <1>  -0.2400 
 11 H1     -24.5820   -43.6690   -21.4050 H     1 <1>   0.0800 
 12 H2     -25.4640   -42.3800   -22.2340 H     1 <1>   0.0800 
 13 H3     -24.5490   -42.0280   -20.7720 H     1 <1>   0.0800 
 14 C      -23.3260   -43.0430   -23.8940 C.3   1 <1>  -0.1600 
 15 H1     -24.1450   -43.7590   -23.9680 H     1 <1>   0.0800 
 16 H2     -23.4180   -42.3060   -24.6910 H     1 <1>   0.0800 
 17 C      -21.9710   -43.7500   -23.9940 C.3   1 <1>  -0.1600 
 18 H1     -21.5260   -43.6360   -24.9830 H     1 <1>   0.0800 
 19 H2     -22.0940   -44.8070   -23.7590 H     1 <1>   0.0800 
 20 C      -21.1080   -43.1160   -22.9090 C.3   1 <1>   0.3430 
 21 H1     -20.5210   -42.3280   -23.3620 H     1 <1>   0.0800 
 22 H2     -20.3860   -43.8270   -22.5300 H     1 <1>   0.0800 
 23 C      -21.2810   -39.4840   -22.7180 C.ar  1 <1>  -0.1500 
 24 H      -20.4790   -39.9860   -23.1930 H     1 <1>   0.1500 
 25 C      -21.7560   -38.2850   -23.2520 C.ar  1 <1>  -0.1440 
 26 C      -21.1820   -37.7040   -24.5170 C.3   1 <1>   0.4860 
 27 H1     -20.1400   -37.9830   -24.5970 H     1 <1>   0.0800 
 28 H2     -21.1590   -36.6280   -24.3980 H     1 <1>   0.0800 
 29 N      -21.9590   -38.0960   -25.7330 N.4   1 <1>  -0.9590 
 30 H      -22.9050   -38.2810   -25.4210 H     1 <1>   0.4500 
 31 C      -22.0620   -37.0410   -26.7720 C.3   1 <1>   0.3430 
 32 H1     -22.8670   -36.3420   -26.5960 H     1 <1>   0.0800 
 33 H2     -21.1660   -36.4380   -26.8100 H     1 <1>   0.0800 
 34 C      -22.2320   -37.7380   -28.1170 C.3   1 <1>  -0.1600 
 35 H1     -23.2930   -37.9260   -28.2770 H     1 <1>   0.0800 
 36 H2     -21.8260   -37.1390   -28.9300 H     1 <1>   0.0800 
 37 C      -21.5130   -39.0770   -27.9500 C.3   1 <1>  -0.1600 
 38 H1     -20.4920   -38.9880   -28.3160 H     1 <1>   0.0800 
 39 H2     -22.0290   -39.8770   -28.4820 H     1 <1>   0.0800 
 40 C      -21.4870   -39.3330   -26.4370 C.3   1 <1>   0.3430 
 41 H1     -20.4880   -39.6250   -26.1450 H     1 <1>   0.0800 
 42 H2     -22.1060   -40.1900   -26.2050 H     1 <1>   0.0800 
 43 C      -22.8390   -37.6550   -22.6430 C.ar  1 <1>  -0.1500 
 44 H      -23.2220   -36.7530   -23.0460 H     1 <1>   0.1500 
 45 C      -23.4350   -38.2010   -21.5220 C.ar  1 <1>  -0.1500 
 46 H      -24.2730   -37.7240   -21.0850 H     1 <1>   0.1500 
 47 H      -23.4170   -41.2620   -22.7980 H     1 <1>   0.0800 
@<TRIPOS>BOND
  1   1   2  1   
  2   1   3  ar  
  3   1  45  ar  
  4   3   4  1   
  5   3  23  ar  
  6   4   5  1   
  7   4   6  1   
  8   4   7  1   
  9   7   8  1   
 10   7   9  1   
 11   7  20  1   
 12   9  10  1   
 13   9  14  1   
 14   9  47  1   
 15  10  11  1   
 16  10  12  1   
 17  10  13  1   
 18  14  15  1   
 19  14  16  1   
 20  14  17  1   
 21  17  18  1   
 22  17  19  1   
 23  17  20  1   
 24  20  21  1   
 25  20  22  1   
 26  23  24  1   
 27  23  25  ar  
 28  25  26  1   
 29  25  43  ar  
 30  26  27  1   
 31  26  28  1   
 32  26  29  1   
 33  29  30  1   
 34  29  31  1   
 35  29  40  1   
 36  31  32  1   
 37  31  33  1   
 38  31  34  1   
 39  34  35  1   
 40  34  36  1   
 41  34  37  1   
 42  37  38  1   
 43  37  39  1   
 44  37  40  1   
 45  40  41  1   
 46  40  42  1   
 47  43  44  1   
 48  43  45  ar  
 49  45  46  1   
@<TRIPOS>SUBSTRUCTURE
  1 ****  23 GROUP 4 **** **** 0
@<TRIPOS>PROPERTY_DATA
rseq	|	1
mseq	|	14
S	|	-6.76942348480225
rmsd_refine	|	1.66075336933136
E_conf	|	-125.227416992188
E_place	|	-49.8365592956543
E_score1	|	-10.2565612792969
E_refine	|	-34.6144905090332
E_score2	|	-6.76942348480225
Field_1	|	13
Field_2	|	cc-2-64
E_orig	|	2.40769243240356
PLIF_pronum	|	1
PLIF_raw	|	[[],[],[],[],[]]
FP:PLIF	|	
PLIF_ligidx	|	[]

# MOE 2020.09 (io_trps.svl 2020.11)

@<TRIPOS>MOLECULE
2XQJ
47 49 1 0 0 
SMALL
USER_CHARGES


@<TRIPOS>ATOM
  1 C      -23.6640   -39.4410   -21.9290 C.ar  1 <1>  -0.1710 
  2 O      -24.4290   -39.9860   -21.0480 O.3   1 <1>  -0.8290 
  3 C      -22.9000   -40.2230   -22.8200 C.ar  1 <1>  -0.1440 
  4 C      -22.9420   -41.7250   -22.7330 C.3   1 <1>   0.4870 
  5 H1     -23.0620   -42.1190   -23.7330 H     1 <1>   0.0800 
  6 H2     -23.8410   -42.0280   -22.2130 H     1 <1>   0.0800 
  7 N      -21.7100   -42.2480   -22.0770 N.4   1 <1>  -0.9590 
  8 H      -20.9450   -41.7050   -22.4460 H     1 <1>   0.4500 
  9 C      -21.6820   -42.0250   -20.5980 C.3   1 <1>   0.4230 
 10 C      -20.9900   -40.7220   -20.1890 C.3   1 <1>  -0.2400 
 11 H1     -20.7620   -40.7160   -19.1250 H     1 <1>   0.0800 
 12 H2     -21.6430   -39.8780   -20.3760 H     1 <1>   0.0800 
 13 H3     -20.0720   -40.5800   -20.7570 H     1 <1>   0.0800 
 14 C      -21.0350   -43.2630   -19.9690 C.3   1 <1>  -0.1600 
 15 H1     -20.2780   -43.0230   -19.2340 H     1 <1>   0.0800 
 16 H2     -21.8240   -43.8060   -19.4660 H     1 <1>   0.0800 
 17 C      -20.4830   -44.0850   -21.1370 C.3   1 <1>  -0.1600 
 18 H1     -20.5000   -45.1560   -20.9560 H     1 <1>   0.0800 
 19 H2     -19.4610   -43.7670   -21.3470 H     1 <1>   0.0800 
 20 C      -21.3680   -43.6740   -22.3060 C.3   1 <1>   0.3430 
 21 H1     -22.2530   -44.2980   -22.3050 H     1 <1>   0.0800 
 22 H2     -20.8790   -43.8630   -23.2520 H     1 <1>   0.0800 
 23 C      -22.0070   -39.6270   -23.6930 C.ar  1 <1>  -0.1500 
 24 H      -21.3960   -40.2460   -24.2960 H     1 <1>   0.1500 
 25 C      -21.8720   -38.2410   -23.7600 C.ar  1 <1>  -0.1440 
 26 C      -20.8400   -37.6030   -24.6660 C.3   1 <1>   0.4860 
 27 H1     -19.8750   -37.9520   -24.3240 H     1 <1>   0.0800 
 28 H2     -20.8150   -36.5470   -24.4310 H     1 <1>   0.0800 
 29 N      -20.9620   -37.8040   -26.1600 N.4   1 <1>  -0.9590 
 30 H      -20.1010   -37.4690   -26.5680 H     1 <1>   0.4500 
 31 C      -21.1390   -39.1890   -26.6860 C.3   1 <1>   0.3430 
 32 H1     -20.2580   -39.8130   -26.6270 H     1 <1>   0.0800 
 33 H2     -21.9080   -39.7220   -26.1450 H     1 <1>   0.0800 
 34 C      -21.6200   -39.0500   -28.1210 C.3   1 <1>  -0.1600 
 35 H1     -20.7460   -38.9470   -28.7630 H     1 <1>   0.0800 
 36 H2     -22.2170   -39.9070   -28.4290 H     1 <1>   0.0800 
 37 C      -22.4210   -37.7440   -28.1210 C.3   1 <1>  -0.1600 
 38 H1     -22.1870   -37.1370   -28.9950 H     1 <1>   0.0800 
 39 H2     -23.4840   -37.9730   -28.0970 H     1 <1>   0.0800 
 40 C      -22.0200   -37.0110   -26.8330 C.3   1 <1>   0.3430 
 41 H1     -22.8910   -36.8900   -26.2050 H     1 <1>   0.0800 
 42 H2     -21.6950   -36.0060   -27.0630 H     1 <1>   0.0800 
 43 C      -22.6550   -37.4550   -22.9150 C.ar  1 <1>  -0.1500 
 44 H      -22.5730   -36.3980   -22.9480 H     1 <1>   0.1500 
 45 C      -23.5290   -38.0400   -22.0130 C.ar  1 <1>  -0.1500 
 46 H      -24.1120   -37.4360   -21.3680 H     1 <1>   0.1500 
 47 H      -22.6900   -41.9750   -20.2070 H     1 <1>   0.0800 
@<TRIPOS>BOND
  1   1   2  1   
  2   1   3  ar  
  3   1  45  ar  
  4   3   4  1   
  5   3  23  ar  
  6   4   5  1   
  7   4   6  1   
  8   4   7  1   
  9   7   8  1   
 10   7   9  1   
 11   7  20  1   
 12   9  10  1   
 13   9  14  1   
 14   9  47  1   
 15  10  11  1   
 16  10  12  1   
 17  10  13  1   
 18  14  15  1   
 19  14  16  1   
 20  14  17  1   
 21  17  18  1   
 22  17  19  1   
 23  17  20  1   
 24  20  21  1   
 25  20  22  1   
 26  23  24  1   
 27  23  25  ar  
 28  25  26  1   
 29  25  43  ar  
 30  26  27  1   
 31  26  28  1   
 32  26  29  1   
 33  29  30  1   
 34  29  31  1   
 35  29  40  1   
 36  31  32  1   
 37  31  33  1   
 38  31  34  1   
 39  34  35  1   
 40  34  36  1   
 41  34  37  1   
 42  37  38  1   
 43  37  39  1   
 44  37  40  1   
 45  40  41  1   
 46  40  42  1   
 47  43  44  1   
 48  43  45  ar  
 49  45  46  1   
@<TRIPOS>SUBSTRUCTURE
  1 ****  23 GROUP 4 **** **** 0
@<TRIPOS>PROPERTY_DATA
rseq	|	1
mseq	|	14
S	|	-6.65562868118286
rmsd_refine	|	1.28513824939728
E_conf	|	-122.265571594238
E_place	|	-62.3745765686035
E_score1	|	-10.490086555481
E_refine	|	-27.2858085632324
E_score2	|	-6.65562868118286
Field_1	|	13
Field_2	|	cc-2-64
E_orig	|	1.39999997615814
PLIF_pronum	|	1
PLIF_raw	|	[[29,1,1,1,1,1,3,3,3,3,3,23,23,23,23,23,25,25,25,25,25,43,43,43,43,43,45,45,45,45,45,1,1,1,1,1,1,3,3,3,3,3,3,23,23,23,23,23,23,25,25,25,25,25,25,43,43,43,43,43,43,45,45,45,45,45,45],[1782,1242,1245,1248,1246,1243,1242,1245,1248,1246,1243,1242,1245,1248,1246,1243,1242,1245,1248,1246,1243,1242,1245,1248,1246,1243,1242,1245,1248,1246,1243,1245,1249,1253,1255,1251,1248,1245,1249,1253,1255,1251,1248,1245,1249,1253,1255,1251,1248,1245,1249,1253,1255,1251,1248,1245,1249,1253,1255,1251,1248,1245,1249,1253,1255,1251,1248],[115,82,82,82,82,82,82,82,82,82,82,82,82,82,82,82,82,82,82,82,82,82,82,82,82,82,82,82,82,82,82,82,82,82,82,82,82,82,82,82,82,82,82,82,82,82,82,82,82,82,82,82,82,82,82,82,82,82,82,82,82,82,82,82,82,82,82],[3,10,10,10,10,10,10,10,10,10,10,10,10,10,10,10,10,10,10,10,10,10,10,10,10,10,10,10,10,10,10,10,10,10,10,10,10,10,10,10,10,10,10,10,10,10,10,10,10,10,10,10,10,10,10,10,10,10,10,10,10,10,10,10,10,10,10],[1.2,1e-005,1e-005,1e-005,1e-005,1e-005,1e-005,1e-005,1e-005,1e-005,1e-005,1e-005,1e-005,1e-005,1e-005,1e-005,1e-005,1e-005,1e-005,1e-005,1e-005,1e-005,1e-005,1e-005,1e-005,1e-005,1e-005,1e-005,1e-005,1e-005,1e-005,1e-005,1e-005,1e-005,1e-005,1e-005,1e-005,1e-005,1e-005,1e-005,1e-005,1e-005,1e-005,1e-005,1e-005,1e-005,1e-005,1e-005,1e-005,1e-005,1e-005,1e-005,1e-005,1e-005,1e-005,1e-005,1e-005,1e-005,1e-005,1e-005,1e-005,1e-005,1e-005,1e-005,1e-005,1e-005,1e-005]]
FP:PLIF	|	5
PLIF_ligidx	|	29

# MOE 2020.09 (io_trps.svl 2020.11)

@<TRIPOS>MOLECULE
2XQJ
47 49 1 0 0 
SMALL
USER_CHARGES


@<TRIPOS>ATOM
  1 C      -19.2100   -41.2250   -23.0500 C.ar  1 <1>  -0.1710 
  2 O      -18.7440   -42.3510   -22.6540 O.3   1 <1>  -0.8290 
  3 C      -20.6010   -41.0060   -23.1300 C.ar  1 <1>  -0.1440 
  4 C      -21.5440   -42.0790   -22.6430 C.3   1 <1>   0.4870 
  5 H1     -20.9670   -42.9860   -22.5190 H     1 <1>   0.0800 
  6 H2     -22.2310   -42.3240   -23.4420 H     1 <1>   0.0800 
  7 N      -22.2700   -41.7350   -21.3790 N.4   1 <1>  -0.9590 
  8 H      -21.6290   -41.1910   -20.8180 H     1 <1>   0.4500 
  9 C      -23.5210   -40.9340   -21.6020 C.3   1 <1>   0.4230 
 10 C      -23.5290   -39.6030   -20.8410 C.3   1 <1>  -0.2400 
 11 H1     -24.4610   -39.0640   -21.0160 H     1 <1>   0.0800 
 12 H2     -22.7110   -38.9720   -21.1840 H     1 <1>   0.0800 
 13 H3     -23.4220   -39.7650   -19.7680 H     1 <1>   0.0800 
 14 C      -24.7070   -41.8250   -21.2220 C.3   1 <1>  -0.1600 
 15 H1     -25.5310   -41.2680   -20.7730 H     1 <1>   0.0800 
 16 H2     -25.0550   -42.3290   -22.1250 H     1 <1>   0.0800 
 17 C      -24.1400   -42.8690   -20.2650 C.3   1 <1>  -0.1600 
 18 H1     -24.6140   -43.8370   -20.4020 H     1 <1>   0.0800 
 19 H2     -24.2710   -42.5310   -19.2380 H     1 <1>   0.0800 
 20 C      -22.6540   -42.9490   -20.6000 C.3   1 <1>   0.3430 
 21 H1     -22.4820   -43.8530   -21.1710 H     1 <1>   0.0800 
 22 H2     -22.0720   -43.0800   -19.6970 H     1 <1>   0.0800 
 23 C      -21.0920   -39.8270   -23.6630 C.ar  1 <1>  -0.1500 
 24 H      -22.1380   -39.6880   -23.7480 H     1 <1>   0.1500 
 25 C      -20.2290   -38.8340   -24.1250 C.ar  1 <1>  -0.1440 
 26 C      -20.7890   -37.6430   -24.8610 C.3   1 <1>   0.4860 
 27 H1     -19.9570   -37.0960   -25.2860 H     1 <1>   0.0800 
 28 H2     -21.2160   -36.9570   -24.1410 H     1 <1>   0.0800 
 29 N      -21.7830   -38.0210   -25.9240 N.4   1 <1>  -0.9590 
 30 H      -22.6490   -38.2540   -25.4590 H     1 <1>   0.4500 
 31 C      -22.0840   -36.9330   -26.8860 C.3   1 <1>   0.3430 
 32 H1     -22.9230   -36.3200   -26.5890 H     1 <1>   0.0800 
 33 H2     -21.2530   -36.2460   -26.9750 H     1 <1>   0.0800 
 34 C      -22.3300   -37.5670   -28.2510 C.3   1 <1>  -0.1600 
 35 H1     -23.3830   -37.8300   -28.3150 H     1 <1>   0.0800 
 36 H2     -22.0480   -36.8990   -29.0650 H     1 <1>   0.0800 
 37 C      -21.5160   -38.8570   -28.2340 C.3   1 <1>  -0.1600 
 38 H1     -20.5160   -38.6680   -28.6200 H     1 <1>   0.0800 
 39 H2     -21.9940   -39.6490   -28.8110 H     1 <1>   0.0800 
 40 C      -21.4060   -39.2230   -26.7580 C.3   1 <1>   0.3430 
 41 H1     -20.4120   -39.5950   -26.5520 H     1 <1>   0.0800 
 42 H2     -22.0570   -40.0630   -26.5550 H     1 <1>   0.0800 
 43 C      -18.8530   -39.0070   -23.9760 C.ar  1 <1>  -0.1500 
 44 H      -18.1860   -38.2480   -24.2920 H     1 <1>   0.1500 
 45 C      -18.3480   -40.1800   -23.4440 C.ar  1 <1>  -0.1500 
 46 H      -17.3010   -40.3140   -23.3470 H     1 <1>   0.1500 
 47 H      -23.6380   -40.6870   -22.6490 H     1 <1>   0.0800 
@<TRIPOS>BOND
  1   1   2  1   
  2   1   3  ar  
  3   1  45  ar  
  4   3   4  1   
  5   3  23  ar  
  6   4   5  1   
  7   4   6  1   
  8   4   7  1   
  9   7   8  1   
 10   7   9  1   
 11   7  20  1   
 12   9  10  1   
 13   9  14  1   
 14   9  47  1   
 15  10  11  1   
 16  10  12  1   
 17  10  13  1   
 18  14  15  1   
 19  14  16  1   
 20  14  17  1   
 21  17  18  1   
 22  17  19  1   
 23  17  20  1   
 24  20  21  1   
 25  20  22  1   
 26  23  24  1   
 27  23  25  ar  
 28  25  26  1   
 29  25  43  ar  
 30  26  27  1   
 31  26  28  1   
 32  26  29  1   
 33  29  30  1   
 34  29  31  1   
 35  29  40  1   
 36  31  32  1   
 37  31  33  1   
 38  31  34  1   
 39  34  35  1   
 40  34  36  1   
 41  34  37  1   
 42  37  38  1   
 43  37  39  1   
 44  37  40  1   
 45  40  41  1   
 46  40  42  1   
 47  43  44  1   
 48  43  45  ar  
 49  45  46  1   
@<TRIPOS>SUBSTRUCTURE
  1 ****  23 GROUP 4 **** **** 0
@<TRIPOS>PROPERTY_DATA
rseq	|	1
mseq	|	14
S	|	-6.62769889831543
rmsd_refine	|	2.0985164642334
E_conf	|	-124.472244262695
E_place	|	-55.1051902770996
E_score1	|	-9.9561243057251
E_refine	|	-33.6960563659668
E_score2	|	-6.62769889831543
Field_1	|	13
Field_2	|	cc-2-64
E_orig	|	1.92734098434448
PLIF_pronum	|	1
PLIF_raw	|	[[],[],[],[],[]]
FP:PLIF	|	
PLIF_ligidx	|	[]

# MOE 2020.09 (io_trps.svl 2020.11)

@<TRIPOS>MOLECULE
2XQJ
50 52 1 0 0 
SMALL
USER_CHARGES


@<TRIPOS>ATOM
  1 C      -20.6620   -38.7050   -23.7050 C.ar  1 <1>  -0.1710 
  2 O      -21.7840   -38.0910   -23.7940 O.3   1 <1>  -0.8290 
  3 C      -20.5980   -40.0900   -23.4280 C.ar  1 <1>  -0.1440 
  4 C      -21.8760   -40.8860   -23.2650 C.3   1 <1>   0.4870 
  5 H1     -21.6590   -41.9030   -23.5610 H     1 <1>   0.0800 
  6 H2     -22.5820   -40.5450   -24.0110 H     1 <1>   0.0800 
  7 N      -22.4780   -40.8400   -21.8850 N.4   1 <1>  -0.9590 
  8 H      -21.7110   -40.9050   -21.2340 H     1 <1>   0.4500 
  9 C      -23.4660   -41.9290   -21.5140 C.3   1 <1>   0.4230 
 10 C      -23.9450   -42.8420   -22.6560 C.3   1 <1>  -0.2400 
 11 H1     -24.7210   -43.5190   -22.3010 H     1 <1>   0.0800 
 12 H2     -23.1230   -43.4490   -23.0360 H     1 <1>   0.0800 
 13 H3     -24.3550   -42.2590   -23.4800 H     1 <1>   0.0800 
 14 C      -24.6470   -41.2560   -20.7850 C.3   1 <1>  -0.1600 
 15 H1     -25.5410   -41.2900   -21.4090 H     1 <1>   0.0800 
 16 H2     -24.8500   -41.7500   -19.8340 H     1 <1>   0.0800 
 17 C      -24.2430   -39.7970   -20.5710 C.3   1 <1>  -0.1600 
 18 H1     -23.8220   -39.6730   -19.5730 H     1 <1>   0.0800 
 19 H2     -25.0740   -39.1130   -20.7260 H     1 <1>   0.0800 
 20 C      -23.1570   -39.5440   -21.6040 C.3   1 <1>   0.3430 
 21 H1     -22.4870   -38.7590   -21.2840 H     1 <1>   0.0800 
 22 H2     -23.6290   -39.1540   -22.4970 H     1 <1>   0.0800 
 23 C      -19.3690   -40.7210   -23.3080 C.ar  1 <1>  -0.1500 
 24 H      -19.3360   -41.7580   -23.0900 H     1 <1>   0.1500 
 25 C      -18.1740   -40.0200   -23.4820 C.ar  1 <1>  -0.1440 
 26 C      -16.8620   -40.7650   -23.3580 C.3   1 <1>   0.4860 
 27 H1     -16.7300   -41.3300   -24.2710 H     1 <1>   0.0800 
 28 H2     -16.9930   -41.5310   -22.6050 H     1 <1>   0.0800 
 29 N      -15.6370   -39.9350   -23.0660 N.4   1 <1>  -0.9590 
 30 H      -15.5790   -39.2430   -23.7970 H     1 <1>   0.4500 
 31 C      -14.3080   -40.6600   -23.0640 C.3   1 <1>   0.4230 
 32 C      -14.3770   -42.1900   -23.1030 C.3   1 <1>  -0.2400 
 33 H1     -13.3830   -42.6020   -22.9560 H     1 <1>   0.0800 
 34 H2     -14.7440   -42.5360   -24.0690 H     1 <1>   0.0800 
 35 H3     -15.0330   -42.5740   -22.3220 H     1 <1>   0.0800 
 36 C      -13.4940   -40.1250   -21.8750 C.3   1 <1>  -0.1600 
 37 H1     -13.4940   -40.8670   -21.0810 H     1 <1>   0.0800 
 38 H2     -12.4700   -39.8880   -22.1630 H     1 <1>   0.0800 
 39 C      -14.2410   -38.8880   -21.3910 C.3   1 <1>  -0.1600 
 40 H1     -13.8970   -38.0150   -21.9480 H     1 <1>   0.0800 
 41 H2     -14.1120   -38.7180   -20.3240 H     1 <1>   0.0800 
 42 C      -15.6830   -39.1790   -21.7800 C.3   1 <1>   0.3430 
 43 H1     -16.2720   -38.2750   -21.8200 H     1 <1>   0.0800 
 44 H2     -16.1320   -39.7730   -20.9940 H     1 <1>   0.0800 
 45 C      -18.2340   -38.6590   -23.7920 C.ar  1 <1>  -0.1500 
 46 H      -17.3470   -38.1080   -23.9540 H     1 <1>   0.1500 
 47 C      -19.4510   -38.0090   -23.8930 C.ar  1 <1>  -0.1500 
 48 H      -19.4860   -36.9740   -24.1190 H     1 <1>   0.1500 
 49 H      -23.0010   -42.5850   -20.7900 H     1 <1>   0.0800 
 50 H      -13.7400   -40.3790   -23.9370 H     1 <1>   0.0800 
@<TRIPOS>BOND
  1   1   2  1   
  2   1   3  ar  
  3   1  47  ar  
  4   3   4  1   
  5   3  23  ar  
  6   4   5  1   
  7   4   6  1   
  8   4   7  1   
  9   7   8  1   
 10   7   9  1   
 11   7  20  1   
 12   9  10  1   
 13   9  14  1   
 14   9  49  1   
 15  10  11  1   
 16  10  12  1   
 17  10  13  1   
 18  14  15  1   
 19  14  16  1   
 20  14  17  1   
 21  17  18  1   
 22  17  19  1   
 23  17  20  1   
 24  20  21  1   
 25  20  22  1   
 26  23  24  1   
 27  23  25  ar  
 28  25  26  1   
 29  25  45  ar  
 30  26  27  1   
 31  26  28  1   
 32  26  29  1   
 33  29  30  1   
 34  29  31  1   
 35  29  42  1   
 36  31  32  1   
 37  31  36  1   
 38  31  50  1   
 39  32  33  1   
 40  32  34  1   
 41  32  35  1   
 42  36  37  1   
 43  36  38  1   
 44  36  39  1   
 45  39  40  1   
 46  39  41  1   
 47  39  42  1   
 48  42  43  1   
 49  42  44  1   
 50  45  46  1   
 51  45  47  ar  
 52  47  48  1   
@<TRIPOS>SUBSTRUCTURE
  1 ****  23 GROUP 4 **** **** 0
@<TRIPOS>PROPERTY_DATA
rseq	|	1
mseq	|	15
S	|	-7.0854320526123
rmsd_refine	|	1.24887311458588
E_conf	|	-149.668518066406
E_place	|	-73.3628768920898
E_score1	|	-10.3222017288208
E_refine	|	-36.8254051208496
E_score2	|	-7.0854320526123
Field_1	|	14
Field_2	|	cc-2-41
E_orig	|	1.51262032985687
PLIF_pronum	|	1
PLIF_raw	|	[[1,3,23,25,45,47],[6787,6787,6787,6787,6787,6787],[438,438,438,438,438,438],[10,10,10,10,10,10],[0.5,0.5,0.5,0.5,0.5,0.5]]
FP:PLIF	|	14
PLIF_ligidx	|	[[1,3,23,25,45,47]]

# MOE 2020.09 (io_trps.svl 2020.11)

@<TRIPOS>MOLECULE
2XQJ
50 52 1 0 0 
SMALL
USER_CHARGES


@<TRIPOS>ATOM
  1 C      -20.8090   -39.0650   -24.1590 C.ar  1 <1>  -0.1710 
  2 O      -21.9700   -38.9000   -24.6760 O.3   1 <1>  -0.8290 
  3 C      -20.5310   -40.1690   -23.3240 C.ar  1 <1>  -0.1440 
  4 C      -21.6310   -41.1730   -23.0540 C.3   1 <1>   0.4870 
  5 H1     -21.1910   -42.1610   -23.0680 H     1 <1>   0.0800 
  6 H2     -22.2940   -41.1740   -23.9090 H     1 <1>   0.0800 
  7 N      -22.3940   -40.9340   -21.7760 N.4   1 <1>  -0.9590 
  8 H      -21.7150   -40.9260   -21.0310 H     1 <1>   0.4500 
  9 C      -23.4480   -41.9500   -21.3930 C.3   1 <1>   0.4230 
 10 C      -23.9620   -42.8450   -22.5350 C.3   1 <1>  -0.2400 
 11 H1     -24.7770   -43.4790   -22.1850 H     1 <1>   0.0800 
 12 H2     -23.1700   -43.4970   -22.9020 H     1 <1>   0.0800 
 13 H3     -24.3300   -42.2450   -23.3670 H     1 <1>   0.0800 
 14 C      -24.6020   -41.1760   -20.7170 C.3   1 <1>  -0.1600 
 15 H1     -25.5170   -41.2670   -21.3050 H     1 <1>   0.0800 
 16 H2     -24.7820   -41.5520   -19.7090 H     1 <1>   0.0800 
 17 C      -24.1710   -39.7070   -20.6810 C.3   1 <1>  -0.1600 
 18 H1     -23.7450   -39.4790   -19.7030 H     1 <1>   0.0800 
 19 H2     -24.9910   -39.0250   -20.9010 H     1 <1>   0.0800 
 20 C      -23.0710   -39.6080   -21.7280 C.3   1 <1>   0.3430 
 21 H1     -22.4050   -38.7810   -21.5240 H     1 <1>   0.0800 
 22 H2     -23.5270   -39.3700   -22.6820 H     1 <1>   0.0800 
 23 C      -19.2830   -40.3050   -22.7340 C.ar  1 <1>  -0.1500 
 24 H      -19.1040   -41.1310   -22.0990 H     1 <1>   0.1500 
 25 C      -18.2720   -39.3660   -22.9540 C.ar  1 <1>  -0.1440 
 26 C      -16.9480   -39.4680   -22.2260 C.3   1 <1>   0.4860 
 27 H1     -16.9940   -40.3000   -21.5430 H     1 <1>   0.0800 
 28 H2     -16.9010   -38.6160   -21.5610 H     1 <1>   0.0800 
 29 N      -15.7070   -39.5420   -23.0720 N.4   1 <1>  -0.9590 
 30 H      -15.9550   -39.2410   -24.0030 H     1 <1>   0.4500 
 31 C      -15.0810   -40.9110   -23.1560 C.3   1 <1>   0.4230 
 32 C      -16.0060   -42.1330   -23.2310 C.3   1 <1>  -0.2400 
 33 H1     -15.4200   -43.0280   -23.4430 H     1 <1>   0.0800 
 34 H2     -16.7370   -42.0110   -24.0310 H     1 <1>   0.0800 
 35 H3     -16.5300   -42.3010   -22.2940 H     1 <1>   0.0800 
 36 C      -14.0380   -40.9780   -22.0440 C.3   1 <1>  -0.1600 
 37 H1     -14.5240   -41.2780   -21.1160 H     1 <1>   0.0800 
 38 H2     -13.2310   -41.6650   -22.2990 H     1 <1>   0.0800 
 39 C      -13.5300   -39.5440   -21.9050 C.3   1 <1>  -0.1600 
 40 H1     -12.6140   -39.4230   -22.4850 H     1 <1>   0.0800 
 41 H2     -13.3510   -39.2900   -20.8610 H     1 <1>   0.0800 
 42 C      -14.6240   -38.6620   -22.5140 C.3   1 <1>   0.3430 
 43 H1     -14.1800   -38.0270   -23.2690 H     1 <1>   0.0800 
 44 H2     -14.9920   -37.9780   -21.7610 H     1 <1>   0.0800 
 45 C      -18.5290   -38.2980   -23.8150 C.ar  1 <1>  -0.1500 
 46 H      -17.7730   -37.5880   -24.0190 H     1 <1>   0.1500 
 47 C      -19.7720   -38.1420   -24.4010 C.ar  1 <1>  -0.1500 
 48 H      -19.9610   -37.3170   -25.0390 H     1 <1>   0.1500 
 49 H      -23.0440   -42.6210   -20.6480 H     1 <1>   0.0800 
 50 H      -14.4960   -40.9550   -24.0610 H     1 <1>   0.0800 
@<TRIPOS>BOND
  1   1   2  1   
  2   1   3  ar  
  3   1  47  ar  
  4   3   4  1   
  5   3  23  ar  
  6   4   5  1   
  7   4   6  1   
  8   4   7  1   
  9   7   8  1   
 10   7   9  1   
 11   7  20  1   
 12   9  10  1   
 13   9  14  1   
 14   9  49  1   
 15  10  11  1   
 16  10  12  1   
 17  10  13  1   
 18  14  15  1   
 19  14  16  1   
 20  14  17  1   
 21  17  18  1   
 22  17  19  1   
 23  17  20  1   
 24  20  21  1   
 25  20  22  1   
 26  23  24  1   
 27  23  25  ar  
 28  25  26  1   
 29  25  45  ar  
 30  26  27  1   
 31  26  28  1   
 32  26  29  1   
 33  29  30  1   
 34  29  31  1   
 35  29  42  1   
 36  31  32  1   
 37  31  36  1   
 38  31  50  1   
 39  32  33  1   
 40  32  34  1   
 41  32  35  1   
 42  36  37  1   
 43  36  38  1   
 44  36  39  1   
 45  39  40  1   
 46  39  41  1   
 47  39  42  1   
 48  42  43  1   
 49  42  44  1   
 50  45  46  1   
 51  45  47  ar  
 52  47  48  1   
@<TRIPOS>SUBSTRUCTURE
  1 ****  23 GROUP 4 **** **** 0
@<TRIPOS>PROPERTY_DATA
rseq	|	1
mseq	|	15
S	|	-7.03531503677368
rmsd_refine	|	2.0385901927948
E_conf	|	-149.974304199219
E_place	|	-53.1990776062012
E_score1	|	-10.3143491744995
E_refine	|	-35.9331512451172
E_score2	|	-7.03531503677368
Field_1	|	14
Field_2	|	cc-2-41
E_orig	|	0.601277828216553
PLIF_pronum	|	1
PLIF_raw	|	[[1,3,23,25,45,47],[6787,6787,6787,6787,6787,6787],[438,438,438,438,438,438],[10,10,10,10,10,10],[1.2,1.2,1.2,1.2,1.2,1.2]]
FP:PLIF	|	14 28
PLIF_ligidx	|	[[1,3,23,25,45,47],[1,3,23,25,45,47]]

# MOE 2020.09 (io_trps.svl 2020.11)

@<TRIPOS>MOLECULE
2XQJ
50 52 1 0 0 
SMALL
USER_CHARGES


@<TRIPOS>ATOM
  1 C      -18.3710   -38.5240   -23.7380 C.ar  1 <1>  -0.1710 
  2 O      -17.3420   -37.9830   -24.2880 O.3   1 <1>  -0.8290 
  3 C      -18.3210   -39.8240   -23.1770 C.ar  1 <1>  -0.1440 
  4 C      -17.0470   -40.6470   -23.2260 C.3   1 <1>   0.4870 
  5 H1     -17.0090   -41.1160   -24.2010 H     1 <1>   0.0800 
  6 H2     -17.1620   -41.4800   -22.5470 H     1 <1>   0.0800 
  7 N      -15.7700   -39.9020   -22.9500 N.4   1 <1>  -0.9590 
  8 H      -15.7470   -39.1790   -23.6590 H     1 <1>   0.4500 
  9 C      -14.4700   -40.6640   -23.0380 C.3   1 <1>   0.4230 
 10 C      -14.5910   -42.1920   -23.0580 C.3   1 <1>  -0.2400 
 11 H1     -13.6020   -42.6440   -23.0120 H     1 <1>   0.0800 
 12 H2     -15.0670   -42.5270   -23.9800 H     1 <1>   0.0800 
 13 H3     -15.1800   -42.5480   -22.2140 H     1 <1>   0.0800 
 14 C      -13.5620   -40.1460   -21.9090 C.3   1 <1>  -0.1600 
 15 H1     -13.5080   -40.8920   -21.1200 H     1 <1>   0.0800 
 16 H2     -12.5600   -39.9160   -22.2720 H     1 <1>   0.0800 
 17 C      -14.2560   -38.9000   -21.3640 C.3   1 <1>  -0.1600 
 18 H1     -13.9360   -38.0290   -21.9380 H     1 <1>   0.0800 
 19 H2     -14.0550   -38.7390   -20.3080 H     1 <1>   0.0800 
 20 C      -15.7260   -39.1610   -21.6620 C.3   1 <1>   0.3430 
 21 H1     -16.3000   -38.2460   -21.6660 H     1 <1>   0.0800 
 22 H2     -16.1380   -39.7540   -20.8560 H     1 <1>   0.0800 
 23 C      -19.4510   -40.3710   -22.5850 C.ar  1 <1>  -0.1500 
 24 H      -19.4040   -41.3470   -22.1750 H     1 <1>   0.1500 
 25 C      -20.6500   -39.6620   -22.5150 C.ar  1 <1>  -0.1440 
 26 C      -21.8470   -40.2840   -21.8300 C.3   1 <1>   0.4860 
 27 H1     -22.1710   -39.5990   -21.0590 H     1 <1>   0.0800 
 28 H2     -21.4850   -41.1380   -21.2720 H     1 <1>   0.0800 
 29 N      -23.0070   -40.6860   -22.7080 N.4   1 <1>  -0.9590 
 30 H      -23.4250   -39.8390   -23.0680 H     1 <1>   0.4500 
 31 C      -24.0850   -41.4740   -21.9950 C.3   1 <1>   0.4230 
 32 C      -24.1720   -41.3400   -20.4690 C.3   1 <1>  -0.2400 
 33 H1     -25.0420   -41.8760   -20.0920 H     1 <1>   0.0800 
 34 H2     -24.2680   -40.2930   -20.1770 H     1 <1>   0.0800 
 35 H3     -23.2870   -41.7650   -20.0020 H     1 <1>   0.0800 
 36 C      -23.9660   -42.9260   -22.4610 C.3   1 <1>  -0.1600 
 37 H1     -23.2630   -43.4550   -21.8160 H     1 <1>   0.0800 
 38 H2     -24.9310   -43.4330   -22.4600 H     1 <1>   0.0800 
 39 C      -23.3770   -42.8410   -23.8660 C.3   1 <1>  -0.1600 
 40 H1     -24.1860   -42.7860   -24.5950 H     1 <1>   0.0800 
 41 H2     -22.7360   -43.6960   -24.0860 H     1 <1>   0.0800 
 42 C      -22.5940   -41.5260   -23.8880 C.3   1 <1>   0.3430 
 43 H1     -22.7470   -41.0250   -24.8340 H     1 <1>   0.0800 
 44 H2     -21.5370   -41.7550   -23.8660 H     1 <1>   0.0800 
 45 C      -20.7100   -38.3850   -23.0720 C.ar  1 <1>  -0.1500 
 46 H      -21.6140   -37.8320   -23.0340 H     1 <1>   0.1500 
 47 C      -19.5950   -37.8230   -23.6720 C.ar  1 <1>  -0.1500 
 48 H      -19.6540   -36.8500   -24.0880 H     1 <1>   0.1500 
 49 H      -13.9580   -40.4040   -23.9490 H     1 <1>   0.0800 
 50 H      -25.0430   -41.1400   -22.3590 H     1 <1>   0.0800 
@<TRIPOS>BOND
  1   1   2  1   
  2   1   3  ar  
  3   1  47  ar  
  4   3   4  1   
  5   3  23  ar  
  6   4   5  1   
  7   4   6  1   
  8   4   7  1   
  9   7   8  1   
 10   7   9  1   
 11   7  20  1   
 12   9  10  1   
 13   9  14  1   
 14   9  49  1   
 15  10  11  1   
 16  10  12  1   
 17  10  13  1   
 18  14  15  1   
 19  14  16  1   
 20  14  17  1   
 21  17  18  1   
 22  17  19  1   
 23  17  20  1   
 24  20  21  1   
 25  20  22  1   
 26  23  24  1   
 27  23  25  ar  
 28  25  26  1   
 29  25  45  ar  
 30  26  27  1   
 31  26  28  1   
 32  26  29  1   
 33  29  30  1   
 34  29  31  1   
 35  29  42  1   
 36  31  32  1   
 37  31  36  1   
 38  31  50  1   
 39  32  33  1   
 40  32  34  1   
 41  32  35  1   
 42  36  37  1   
 43  36  38  1   
 44  36  39  1   
 45  39  40  1   
 46  39  41  1   
 47  39  42  1   
 48  42  43  1   
 49  42  44  1   
 50  45  46  1   
 51  45  47  ar  
 52  47  48  1   
@<TRIPOS>SUBSTRUCTURE
  1 ****  23 GROUP 4 **** **** 0
@<TRIPOS>PROPERTY_DATA
rseq	|	1
mseq	|	15
S	|	-7.02089166641235
rmsd_refine	|	1.1418205499649
E_conf	|	-149.80158996582
E_place	|	-50.6082382202148
E_score1	|	-11.1971759796143
E_refine	|	-35.0117607116699
E_score2	|	-7.02089166641235
Field_1	|	14
Field_2	|	cc-2-41
E_orig	|	1.87454032897949
PLIF_pronum	|	1
PLIF_raw	|	[2,1790,117,4,1.3]
FP:PLIF	|	20
PLIF_ligidx	|	2

# MOE 2020.09 (io_trps.svl 2020.11)

@<TRIPOS>MOLECULE
2XQJ
50 52 1 0 0 
SMALL
USER_CHARGES


@<TRIPOS>ATOM
  1 C      -18.9580   -38.5890   -23.5020 C.ar  1 <1>  -0.1710 
  2 O      -17.9420   -38.1580   -24.1640 O.3   1 <1>  -0.8290 
  3 C      -20.2750   -38.2040   -23.8340 C.ar  1 <1>  -0.1440 
  4 C      -20.5250   -37.4070   -25.0820 C.3   1 <1>   0.4870 
  5 H1     -19.6250   -37.4180   -25.6750 H     1 <1>   0.0800 
  6 H2     -20.6370   -36.3700   -24.7930 H     1 <1>   0.0800 
  7 N      -21.7070   -37.8860   -25.8810 N.4   1 <1>  -0.9590 
  8 H      -22.4860   -37.9330   -25.2440 H     1 <1>   0.4500 
  9 C      -21.6030   -39.2380   -26.5650 C.3   1 <1>   0.4230 
 10 C      -20.7830   -40.3920   -25.9650 C.3   1 <1>  -0.2400 
 11 H1     -21.2310   -40.7090   -25.0270 H     1 <1>   0.0800 
 12 H2     -20.7930   -41.2480   -26.6390 H     1 <1>   0.0800 
 13 H3     -19.7520   -40.1410   -25.7550 H     1 <1>   0.0800 
 14 C      -21.4120   -38.9750   -28.0570 C.3   1 <1>  -0.1600 
 15 H1     -20.3580   -38.8280   -28.2790 H     1 <1>   0.0800 
 16 H2     -21.8150   -39.7840   -28.6670 H     1 <1>   0.0800 
 17 C      -22.1740   -37.6700   -28.2770 C.3   1 <1>  -0.1600 
 18 H1     -23.2220   -37.9030   -28.4520 H     1 <1>   0.0800 
 19 H2     -21.7740   -37.0690   -29.0910 H     1 <1>   0.0800 
 20 C      -22.0620   -36.9210   -26.9530 C.3   1 <1>   0.3430 
 21 H1     -22.9780   -36.3860   -26.7500 H     1 <1>   0.0800 
 22 H2     -21.3100   -36.1500   -27.0560 H     1 <1>   0.0800 
 23 C      -21.3570   -38.6380   -23.0860 C.ar  1 <1>  -0.1500 
 24 H      -22.3350   -38.3150   -23.3300 H     1 <1>   0.1500 
 25 C      -21.1820   -39.5440   -22.0500 C.ar  1 <1>  -0.1440 
 26 C      -22.3770   -40.0950   -21.3220 C.3   1 <1>   0.4860 
 27 H1     -22.8680   -39.2730   -20.8170 H     1 <1>   0.0800 
 28 H2     -22.0150   -40.7180   -20.5150 H     1 <1>   0.0800 
 29 N      -23.3410   -40.8530   -22.1970 N.4   1 <1>  -0.9590 
 30 H      -23.7660   -40.1980   -22.8380 H     1 <1>   0.4500 
 31 C      -24.4150   -41.5510   -21.4310 C.3   1 <1>   0.4230 
 32 C      -24.9440   -40.8240   -20.1920 C.3   1 <1>  -0.2400 
 33 H1     -25.8040   -41.3470   -19.7840 H     1 <1>   0.0800 
 34 H2     -25.2480   -39.8200   -20.4780 H     1 <1>   0.0800 
 35 H3     -24.1900   -40.7530   -19.4100 H     1 <1>   0.0800 
 36 C      -23.8950   -42.9610   -21.1590 C.3   1 <1>  -0.1600 
 37 H1     -23.2780   -42.9570   -20.2590 H     1 <1>   0.0800 
 38 H2     -24.7070   -43.6760   -21.0510 H     1 <1>   0.0800 
 39 C      -23.0160   -43.2850   -22.3700 C.3   1 <1>  -0.1600 
 40 H1     -22.1210   -43.8340   -22.0730 H     1 <1>   0.0800 
 41 H2     -23.5840   -43.8560   -23.1040 H     1 <1>   0.0800 
 42 C      -22.6600   -41.9330   -22.9840 C.3   1 <1>   0.3430 
 43 H1     -22.9660   -41.9320   -24.0220 H     1 <1>   0.0800 
 44 H2     -21.5840   -41.8210   -23.0140 H     1 <1>   0.0800 
 45 C      -19.8960   -39.9720   -21.7370 C.ar  1 <1>  -0.1500 
 46 H      -19.7650   -40.6780   -20.9620 H     1 <1>   0.1500 
 47 C      -18.7980   -39.4930   -22.4310 C.ar  1 <1>  -0.1500 
 48 H      -17.8220   -39.8160   -22.1730 H     1 <1>   0.1500 
 49 H      -22.5880   -39.6520   -26.5290 H     1 <1>   0.0800 
 50 H      -25.2670   -41.6810   -22.0860 H     1 <1>   0.0800 
@<TRIPOS>BOND
  1   1   2  1   
  2   1   3  ar  
  3   1  47  ar  
  4   3   4  1   
  5   3  23  ar  
  6   4   5  1   
  7   4   6  1   
  8   4   7  1   
  9   7   8  1   
 10   7   9  1   
 11   7  20  1   
 12   9  10  1   
 13   9  14  1   
 14   9  49  1   
 15  10  11  1   
 16  10  12  1   
 17  10  13  1   
 18  14  15  1   
 19  14  16  1   
 20  14  17  1   
 21  17  18  1   
 22  17  19  1   
 23  17  20  1   
 24  20  21  1   
 25  20  22  1   
 26  23  24  1   
 27  23  25  ar  
 28  25  26  1   
 29  25  45  ar  
 30  26  27  1   
 31  26  28  1   
 32  26  29  1   
 33  29  30  1   
 34  29  31  1   
 35  29  42  1   
 36  31  32  1   
 37  31  36  1   
 38  31  50  1   
 39  32  33  1   
 40  32  34  1   
 41  32  35  1   
 42  36  37  1   
 43  36  38  1   
 44  36  39  1   
 45  39  40  1   
 46  39  41  1   
 47  39  42  1   
 48  42  43  1   
 49  42  44  1   
 50  45  46  1   
 51  45  47  ar  
 52  47  48  1   
@<TRIPOS>SUBSTRUCTURE
  1 ****  23 GROUP 4 **** **** 0
@<TRIPOS>PROPERTY_DATA
rseq	|	1
mseq	|	15
S	|	-7.00819826126099
rmsd_refine	|	1.54290866851807
E_conf	|	-145.956588745117
E_place	|	-58.5760955810547
E_score1	|	-10.9436550140381
E_refine	|	-33.4783477783203
E_score2	|	-7.00819826126099
Field_1	|	14
Field_2	|	cc-2-41
E_orig	|	2.60001063346863
PLIF_pronum	|	1
PLIF_raw	|	[[],[],[],[],[]]
FP:PLIF	|	
PLIF_ligidx	|	[]

# MOE 2020.09 (io_trps.svl 2020.11)

@<TRIPOS>MOLECULE
2XQJ
50 52 1 0 0 
SMALL
USER_CHARGES


@<TRIPOS>ATOM
  1 C      -18.4140   -38.4420   -23.9560 C.ar  1 <1>  -0.1710 
  2 O      -17.4180   -37.7190   -24.3220 O.3   1 <1>  -0.8290 
  3 C      -18.2650   -39.4570   -22.9840 C.ar  1 <1>  -0.1440 
  4 C      -16.9590   -39.5560   -22.2210 C.3   1 <1>   0.4870 
  5 H1     -17.0070   -40.3890   -21.5430 H     1 <1>   0.0800 
  6 H2     -16.9340   -38.7030   -21.5560 H     1 <1>   0.0800 
  7 N      -15.7040   -39.6120   -23.0410 N.4   1 <1>  -0.9590 
  8 H      -15.9730   -39.2820   -23.9610 H     1 <1>   0.4500 
  9 C      -15.0480   -40.9600   -23.1430 C.3   1 <1>   0.4230 
 10 C      -15.9440   -42.2050   -23.1720 C.3   1 <1>  -0.2400 
 11 H1     -15.3440   -43.0860   -23.4050 H     1 <1>   0.0800 
 12 H2     -16.7110   -42.1050   -23.9410 H     1 <1>   0.0800 
 13 H3     -16.4220   -42.3800   -22.2120 H     1 <1>   0.0800 
 14 C      -13.9710   -40.9920   -22.0630 C.3   1 <1>  -0.1600 
 15 H1     -14.4240   -41.3010   -21.1210 H     1 <1>   0.0800 
 16 H2     -13.1520   -41.6560   -22.3370 H     1 <1>   0.0800 
 17 C      -13.5040   -39.5440   -21.9350 C.3   1 <1>  -0.1600 
 18 H1     -12.6220   -39.3880   -22.5560 H     1 <1>   0.0800 
 19 H2     -13.2880   -39.2900   -20.8970 H     1 <1>   0.0800 
 20 C      -14.6550   -38.6980   -22.4860 C.3   1 <1>   0.3430 
 21 H1     -14.2680   -38.0170   -23.2320 H     1 <1>   0.0800 
 22 H2     -15.0390   -38.0580   -21.7020 H     1 <1>   0.0800 
 23 C      -19.3240   -40.3140   -22.7060 C.ar  1 <1>  -0.1500 
 24 H      -19.2010   -41.0900   -21.9990 H     1 <1>   0.1500 
 25 C      -20.5600   -40.1670   -23.3390 C.ar  1 <1>  -0.1440 
 26 C      -21.7020   -41.1150   -23.0470 C.3   1 <1>   0.4860 
 27 H1     -21.3080   -42.1210   -23.0800 H     1 <1>   0.0800 
 28 H2     -22.3880   -41.0790   -23.8830 H     1 <1>   0.0800 
 29 N      -22.4180   -40.8600   -21.7460 N.4   1 <1>  -0.9590 
 30 H      -21.7130   -40.8560   -21.0240 H     1 <1>   0.4500 
 31 C      -23.4590   -41.8770   -21.3190 C.3   1 <1>   0.4230 
 32 C      -23.9680   -42.8280   -22.4160 C.3   1 <1>  -0.2400 
 33 H1     -24.7620   -43.4650   -22.0280 H     1 <1>   0.0800 
 34 H2     -23.1660   -43.4770   -22.7690 H     1 <1>   0.0800 
 35 H3     -24.3640   -42.2720   -23.2650 H     1 <1>   0.0800 
 36 C      -24.6200   -41.0980   -20.6620 C.3   1 <1>  -0.1600 
 37 H1     -25.5240   -41.1860   -21.2670 H     1 <1>   0.0800 
 38 H2     -24.8200   -41.4730   -19.6580 H     1 <1>   0.0800 
 39 C      -24.1820   -39.6320   -20.6230 C.3   1 <1>  -0.1600 
 40 H1     -23.7500   -39.4120   -19.6460 H     1 <1>   0.0800 
 41 H2     -25.0000   -38.9470   -20.8380 H     1 <1>   0.0800 
 42 C      -23.0880   -39.5310   -21.6750 C.3   1 <1>   0.3430 
 43 H1     -22.4160   -38.7110   -21.4630 H     1 <1>   0.0800 
 44 H2     -23.5520   -39.2770   -22.6200 H     1 <1>   0.0800 
 45 C      -20.7360   -39.1140   -24.2340 C.ar  1 <1>  -0.1500 
 46 H      -21.6760   -38.9670   -24.7010 H     1 <1>   0.1500 
 47 C      -19.6900   -38.2580   -24.5290 C.ar  1 <1>  -0.1500 
 48 H      -19.8400   -37.4610   -25.2110 H     1 <1>   0.1500 
 49 H      -14.4960   -40.9940   -24.0680 H     1 <1>   0.0800 
 50 H      -23.0390   -42.5110   -20.5490 H     1 <1>   0.0800 
@<TRIPOS>BOND
  1   1   2  1   
  2   1   3  ar  
  3   1  47  ar  
  4   3   4  1   
  5   3  23  ar  
  6   4   5  1   
  7   4   6  1   
  8   4   7  1   
  9   7   8  1   
 10   7   9  1   
 11   7  20  1   
 12   9  10  1   
 13   9  14  1   
 14   9  49  1   
 15  10  11  1   
 16  10  12  1   
 17  10  13  1   
 18  14  15  1   
 19  14  16  1   
 20  14  17  1   
 21  17  18  1   
 22  17  19  1   
 23  17  20  1   
 24  20  21  1   
 25  20  22  1   
 26  23  24  1   
 27  23  25  ar  
 28  25  26  1   
 29  25  45  ar  
 30  26  27  1   
 31  26  28  1   
 32  26  29  1   
 33  29  30  1   
 34  29  31  1   
 35  29  42  1   
 36  31  32  1   
 37  31  36  1   
 38  31  50  1   
 39  32  33  1   
 40  32  34  1   
 41  32  35  1   
 42  36  37  1   
 43  36  38  1   
 44  36  39  1   
 45  39  40  1   
 46  39  41  1   
 47  39  42  1   
 48  42  43  1   
 49  42  44  1   
 50  45  46  1   
 51  45  47  ar  
 52  47  48  1   
@<TRIPOS>SUBSTRUCTURE
  1 ****  23 GROUP 4 **** **** 0
@<TRIPOS>PROPERTY_DATA
rseq	|	1
mseq	|	15
S	|	-6.91216278076172
rmsd_refine	|	1.45343637466431
E_conf	|	-148.733108520508
E_place	|	-60.0849609375
E_score1	|	-10.0384168624878
E_refine	|	-33.3614883422852
E_score2	|	-6.91216278076172
Field_1	|	14
Field_2	|	cc-2-41
E_orig	|	1.79999995231628
PLIF_pronum	|	1
PLIF_raw	|	[[2,1,3,23,25,45,47],[1790,6787,6787,6787,6787,6787,6787],[117,438,438,438,438,438,438],[4,10,10,10,10,10,10],[1.4,0.6,0.6,0.6,0.6,0.6,0.6]]
FP:PLIF	|	20 14
PLIF_ligidx	|	[2,[1,3,23,25,45,47]]

# MOE 2020.09 (io_trps.svl 2020.11)

@<TRIPOS>MOLECULE
2XQJ
50 52 1 0 0 
SMALL
USER_CHARGES


@<TRIPOS>ATOM
  1 C      -20.8710   -39.0330   -23.2640 C.ar  1 <1>  -0.1710 
  2 O      -22.1010   -38.6700   -23.2680 O.3   1 <1>  -0.8290 
  3 C      -20.4500   -40.3190   -22.8250 C.ar  1 <1>  -0.1440 
  4 C      -21.3930   -41.3820   -22.2770 C.3   1 <1>   0.4870 
  5 H1     -20.8740   -41.8890   -21.4750 H     1 <1>   0.0800 
  6 H2     -21.4750   -42.1430   -23.0410 H     1 <1>   0.0800 
  7 N      -22.7570   -40.9630   -21.8260 N.4   1 <1>  -0.9590 
  8 H      -23.1640   -40.4690   -22.6140 H     1 <1>   0.4500 
  9 C      -23.6740   -42.0690   -21.4450 C.3   1 <1>   0.4230 
 10 C      -24.2050   -42.9050   -22.6140 C.3   1 <1>  -0.2400 
 11 H1     -24.9900   -43.5820   -22.2800 H     1 <1>   0.0800 
 12 H2     -23.4030   -43.5040   -23.0450 H     1 <1>   0.0800 
 13 H3     -24.6000   -42.2680   -23.3990 H     1 <1>   0.0800 
 14 C      -24.7630   -41.4450   -20.5560 C.3   1 <1>  -0.1600 
 15 H1     -25.6790   -41.2880   -21.1280 H     1 <1>   0.0800 
 16 H2     -24.9610   -42.0930   -19.7010 H     1 <1>   0.0800 
 17 C      -24.2100   -40.0890   -20.0970 C.3   1 <1>  -0.1600 
 18 H1     -24.1810   -40.0040   -19.0110 H     1 <1>   0.0800 
 19 H2     -24.8130   -39.2870   -20.5240 H     1 <1>   0.0800 
 20 C      -22.8110   -40.0000   -20.6970 C.3   1 <1>   0.3430 
 21 H1     -22.0880   -40.2480   -19.9310 H     1 <1>   0.0800 
 22 H2     -22.5870   -38.9820   -20.9860 H     1 <1>   0.0800 
 23 C      -19.1130   -40.6700   -22.9220 C.ar  1 <1>  -0.1500 
 24 H      -18.8110   -41.6410   -22.6240 H     1 <1>   0.1500 
 25 C      -18.1570   -39.7800   -23.4050 C.ar  1 <1>  -0.1440 
 26 C      -16.7150   -40.2060   -23.4700 C.3   1 <1>   0.4860 
 27 H1     -16.1570   -39.4750   -24.0380 H     1 <1>   0.0800 
 28 H2     -16.6690   -41.1000   -24.0780 H     1 <1>   0.0800 
 29 N      -16.1090   -40.4350   -22.1260 N.4   1 <1>  -0.9590 
 30 H      -16.8660   -40.7640   -21.5460 H     1 <1>   0.4500 
 31 C      -15.6040   -39.1800   -21.4830 C.3   1 <1>   0.3430 
 32 H1     -16.3310   -38.3810   -21.5400 H     1 <1>   0.0800 
 33 H2     -15.4670   -39.3390   -20.4230 H     1 <1>   0.0800 
 34 C      -14.2660   -38.6830   -22.0420 C.3   1 <1>  -0.1600 
 35 H1     -14.4140   -38.3400   -23.0660 H     1 <1>   0.0800 
 36 H2     -13.9270   -37.8390   -21.4420 H     1 <1>   0.0800 
 37 C      -13.2010   -39.7900   -22.0210 C.3   1 <1>  -0.1600 
 38 H1     -12.3100   -39.4460   -22.5410 H     1 <1>   0.0800 
 39 H2     -12.9380   -40.0140   -20.9870 H     1 <1>   0.0800 
 40 C      -13.7190   -41.0700   -22.6930 C.3   1 <1>  -0.1600 
 41 H1     -13.0000   -41.8740   -22.5580 H     1 <1>   0.0800 
 42 H2     -13.8290   -40.8990   -23.7600 H     1 <1>   0.0800 
 43 C      -15.0690   -41.5110   -22.1240 C.3   1 <1>   0.3430 
 44 H1     -14.8990   -41.8570   -21.1130 H     1 <1>   0.0800 
 45 H2     -15.4010   -42.3950   -22.6530 H     1 <1>   0.0800 
 46 C      -18.5550   -38.5040   -23.7960 C.ar  1 <1>  -0.1500 
 47 H      -17.8400   -37.8110   -24.1530 H     1 <1>   0.1500 
 48 C      -19.8860   -38.1350   -23.7280 C.ar  1 <1>  -0.1500 
 49 H      -20.1830   -37.1640   -24.0350 H     1 <1>   0.1500 
 50 H      -23.1400   -42.7570   -20.8020 H     1 <1>   0.0800 
@<TRIPOS>BOND
  1   1   2  1   
  2   1   3  ar  
  3   1  48  ar  
  4   3   4  1   
  5   3  23  ar  
  6   4   5  1   
  7   4   6  1   
  8   4   7  1   
  9   7   8  1   
 10   7   9  1   
 11   7  20  1   
 12   9  10  1   
 13   9  14  1   
 14   9  50  1   
 15  10  11  1   
 16  10  12  1   
 17  10  13  1   
 18  14  15  1   
 19  14  16  1   
 20  14  17  1   
 21  17  18  1   
 22  17  19  1   
 23  17  20  1   
 24  20  21  1   
 25  20  22  1   
 26  23  24  1   
 27  23  25  ar  
 28  25  26  1   
 29  25  46  ar  
 30  26  27  1   
 31  26  28  1   
 32  26  29  1   
 33  29  30  1   
 34  29  31  1   
 35  29  43  1   
 36  31  32  1   
 37  31  33  1   
 38  31  34  1   
 39  34  35  1   
 40  34  36  1   
 41  34  37  1   
 42  37  38  1   
 43  37  39  1   
 44  37  40  1   
 45  40  41  1   
 46  40  42  1   
 47  40  43  1   
 48  43  44  1   
 49  43  45  1   
 50  46  47  1   
 51  46  48  ar  
 52  48  49  1   
@<TRIPOS>SUBSTRUCTURE
  1 ****  23 GROUP 4 **** **** 0
@<TRIPOS>PROPERTY_DATA
rseq	|	1
mseq	|	16
S	|	-7.16424942016602
rmsd_refine	|	1.29069888591766
E_conf	|	-133.580032348633
E_place	|	-55.977855682373
E_score1	|	-9.89268970489502
E_refine	|	-34.4583320617676
E_score2	|	-7.16424942016602
Field_1	|	15
Field_2	|	cc-2-65
E_orig	|	1.39999997615814
PLIF_pronum	|	1
PLIF_raw	|	[[1,3,23,25,46,48],[6787,6787,6787,6787,6787,6787],[438,438,438,438,438,438],[10,10,10,10,10,10],[0.6,0.6,0.6,0.6,0.6,0.6]]
FP:PLIF	|	14
PLIF_ligidx	|	[[1,3,23,25,46,48]]

# MOE 2020.09 (io_trps.svl 2020.11)

@<TRIPOS>MOLECULE
2XQJ
50 52 1 0 0 
SMALL
USER_CHARGES


@<TRIPOS>ATOM
  1 C      -17.9860   -40.9930   -24.6130 C.ar  1 <1>  -0.1710 
  2 O      -16.8210   -41.2580   -25.0700 O.3   1 <1>  -0.8290 
  3 C      -18.2080   -40.2100   -23.4470 C.ar  1 <1>  -0.1440 
  4 C      -17.0930   -39.6160   -22.5920 C.3   1 <1>   0.4870 
  5 H1     -17.2000   -40.0270   -21.5990 H     1 <1>   0.0800 
  6 H2     -17.3500   -38.5750   -22.4500 H     1 <1>   0.0800 
  7 N      -15.6590   -39.7240   -23.0390 N.4   1 <1>  -0.9590 
  8 H      -15.6490   -39.5420   -24.0330 H     1 <1>   0.4500 
  9 C      -14.7470   -38.7830   -22.3070 C.3   1 <1>   0.4230 
 10 C      -14.3200   -37.5420   -23.0930 C.3   1 <1>  -0.2400 
 11 H1     -14.1570   -36.7190   -22.4010 H     1 <1>   0.0800 
 12 H2     -15.0850   -37.2580   -23.8140 H     1 <1>   0.0800 
 13 H3     -13.3910   -37.7050   -23.6310 H     1 <1>   0.0800 
 14 C      -13.5490   -39.5810   -21.7830 C.3   1 <1>  -0.1600 
 15 H1     -12.6920   -39.4670   -22.4470 H     1 <1>   0.0800 
 16 H2     -13.2800   -39.2740   -20.7730 H     1 <1>   0.0800 
 17 C      -13.9890   -41.0340   -21.8230 C.3   1 <1>  -0.1600 
 18 H1     -14.4300   -41.3050   -20.8690 H     1 <1>   0.0800 
 19 H2     -13.1640   -41.6910   -22.0910 H     1 <1>   0.0800 
 20 C      -15.0900   -41.0950   -22.8640 C.3   1 <1>   0.3430 
 21 H1     -15.8280   -41.8380   -22.5920 H     1 <1>   0.0800 
 22 H2     -14.6660   -41.4600   -23.7910 H     1 <1>   0.0800 
 23 C      -19.5120   -39.9590   -23.0320 C.ar  1 <1>  -0.1500 
 24 H      -19.6770   -39.3800   -22.1610 H     1 <1>   0.1500 
 25 C      -20.6120   -40.4520   -23.7360 C.ar  1 <1>  -0.1440 
 26 C      -22.0320   -40.1440   -23.3150 C.3   1 <1>   0.4860 
 27 H1     -22.0550   -40.0810   -22.2360 H     1 <1>   0.0800 
 28 H2     -22.6140   -41.0320   -23.5220 H     1 <1>   0.0800 
 29 N      -22.6940   -38.9330   -23.9450 N.4   1 <1>  -0.9590 
 30 H      -23.6750   -39.1780   -23.9770 H     1 <1>   0.4500 
 31 C      -22.3010   -38.6630   -25.3860 C.3   1 <1>   0.3430 
 32 H1     -22.1370   -39.5820   -25.9330 H     1 <1>   0.0800 
 33 H2     -23.1230   -38.2020   -25.9140 H     1 <1>   0.0800 
 34 C      -21.0850   -37.7480   -25.5920 C.3   1 <1>  -0.1600 
 35 H1     -20.1800   -38.2820   -25.3090 H     1 <1>   0.0800 
 36 H2     -21.0170   -37.4980   -26.6500 H     1 <1>   0.0800 
 37 C      -21.1790   -36.4590   -24.7680 C.3   1 <1>  -0.1600 
 38 H1     -20.2560   -35.8890   -24.8770 H     1 <1>   0.0800 
 39 H2     -22.0140   -35.8550   -25.1290 H     1 <1>   0.0800 
 40 C      -21.4040   -36.8080   -23.2910 C.3   1 <1>  -0.1600 
 41 H1     -20.5270   -37.3280   -22.9110 H     1 <1>   0.0800 
 42 H2     -21.5380   -35.8930   -22.7150 H     1 <1>   0.0800 
 43 C      -22.6430   -37.6890   -23.0920 C.3   1 <1>   0.3430 
 44 H1     -23.5050   -37.0670   -23.2930 H     1 <1>   0.0800 
 45 H2     -22.7370   -37.9240   -22.0410 H     1 <1>   0.0800 
 46 C      -20.3910   -41.2360   -24.8660 C.ar  1 <1>  -0.1500 
 47 H      -21.2130   -41.6310   -25.4060 H     1 <1>   0.1500 
 48 C      -19.1080   -41.5020   -25.2970 C.ar  1 <1>  -0.1500 
 49 H      -18.9550   -42.1000   -26.1580 H     1 <1>   0.1500 
 50 H      -15.2690   -38.4220   -21.4310 H     1 <1>   0.0800 
@<TRIPOS>BOND
  1   1   2  1   
  2   1   3  ar  
  3   1  48  ar  
  4   3   4  1   
  5   3  23  ar  
  6   4   5  1   
  7   4   6  1   
  8   4   7  1   
  9   7   8  1   
 10   7   9  1   
 11   7  20  1   
 12   9  10  1   
 13   9  14  1   
 14   9  50  1   
 15  10  11  1   
 16  10  12  1   
 17  10  13  1   
 18  14  15  1   
 19  14  16  1   
 20  14  17  1   
 21  17  18  1   
 22  17  19  1   
 23  17  20  1   
 24  20  21  1   
 25  20  22  1   
 26  23  24  1   
 27  23  25  ar  
 28  25  26  1   
 29  25  46  ar  
 30  26  27  1   
 31  26  28  1   
 32  26  29  1   
 33  29  30  1   
 34  29  31  1   
 35  29  43  1   
 36  31  32  1   
 37  31  33  1   
 38  31  34  1   
 39  34  35  1   
 40  34  36  1   
 41  34  37  1   
 42  37  38  1   
 43  37  39  1   
 44  37  40  1   
 45  40  41  1   
 46  40  42  1   
 47  40  43  1   
 48  43  44  1   
 49  43  45  1   
 50  46  47  1   
 51  46  48  ar  
 52  48  49  1   
@<TRIPOS>SUBSTRUCTURE
  1 ****   3 GROUP 4 **** **** 0
@<TRIPOS>PROPERTY_DATA
rseq	|	1
mseq	|	16
S	|	-7.13966083526611
rmsd_refine	|	0.981581747531891
E_conf	|	-128.730041503906
E_place	|	-50.5144271850586
E_score1	|	-10.3466911315918
E_refine	|	-31.4676513671875
E_score2	|	-7.13966083526611
Field_1	|	15
Field_2	|	cc-2-65
E_orig	|	2.02082514762878
PLIF_pronum	|	1
PLIF_raw	|	[[29,29,29,29,29,43,43,43,43,43,43],[1242,1245,1248,1246,1243,1245,1249,1253,1255,1251,1248],[82,82,82,82,82,82,82,82,82,82,82],[10,10,10,10,10,10,10,10,10,10,10],[5.2,5.2,5.2,5.2,5.2,0.8,0.8,0.8,0.8,0.8,0.8]]
FP:PLIF	|	2 15
PLIF_ligidx	|	[[29,29,29,29,29,43,43,43,43,43,43],[29,29,29,29,29]]

# MOE 2020.09 (io_trps.svl 2020.11)

@<TRIPOS>MOLECULE
2XQJ
50 52 1 0 0 
SMALL
USER_CHARGES


@<TRIPOS>ATOM
  1 C      -20.6430   -38.5260   -23.2230 C.ar  1 <1>  -0.1710 
  2 O      -21.7380   -37.9320   -22.9160 O.3   1 <1>  -0.8290 
  3 C      -20.5530   -39.9340   -23.2130 C.ar  1 <1>  -0.1440 
  4 C      -21.8080   -40.7340   -22.9520 C.3   1 <1>   0.4870 
  5 H1     -21.6640   -41.7380   -23.3250 H     1 <1>   0.0800 
  6 H2     -22.5830   -40.3260   -23.5870 H     1 <1>   0.0800 
  7 N      -22.2420   -40.7350   -21.5190 N.4   1 <1>  -0.9590 
  8 H      -22.2010   -39.7680   -21.2230 H     1 <1>   0.4500 
  9 C      -23.6370   -41.2440   -21.3430 C.3   1 <1>   0.4230 
 10 C      -24.5380   -40.2720   -20.5720 C.3   1 <1>  -0.2400 
 11 H1     -25.5530   -40.6650   -20.5090 H     1 <1>   0.0800 
 12 H2     -24.5730   -39.3070   -21.0790 H     1 <1>   0.0800 
 13 H3     -24.1630   -40.1120   -19.5600 H     1 <1>   0.0800 
 14 C      -23.5520   -42.6280   -20.6680 C.3   1 <1>  -0.1600 
 15 H1     -24.0470   -42.6150   -19.6950 H     1 <1>   0.0800 
 16 H2     -24.0200   -43.3840   -21.2980 H     1 <1>   0.0800 
 17 C      -22.0600   -42.9260   -20.4850 C.3   1 <1>  -0.1600 
 18 H1     -21.7260   -43.5950   -21.2790 H     1 <1>   0.0800 
 19 H2     -21.8440   -43.3660   -19.5110 H     1 <1>   0.0800 
 20 C      -21.3710   -41.5780   -20.6550 C.3   1 <1>   0.3430 
 21 H1     -20.3670   -41.7050   -21.0380 H     1 <1>   0.0800 
 22 H2     -21.2460   -41.1310   -19.6780 H     1 <1>   0.0800 
 23 C      -19.3320   -40.5610   -23.4100 C.ar  1 <1>  -0.1500 
 24 H      -19.2720   -41.6180   -23.3570 H     1 <1>   0.1500 
 25 C      -18.1800   -39.8170   -23.6670 C.ar  1 <1>  -0.1440 
 26 C      -16.8350   -40.4930   -23.7450 C.3   1 <1>   0.4860 
 27 H1     -16.1780   -39.8920   -24.3550 H     1 <1>   0.0800 
 28 H2     -16.9550   -41.4110   -24.3030 H     1 <1>   0.0800 
 29 N      -16.2390   -40.7470   -22.3950 N.4   1 <1>  -0.9590 
 30 H      -16.9930   -41.1480   -21.8610 H     1 <1>   0.4500 
 31 C      -15.8320   -39.4930   -21.6600 C.3   1 <1>   0.3430 
 32 H1     -16.5870   -38.7210   -21.7370 H     1 <1>   0.0800 
 33 H2     -15.7700   -39.6880   -20.5970 H     1 <1>   0.0800 
 34 C      -14.4810   -38.9090   -22.0930 C.3   1 <1>  -0.1600 
 35 H1     -14.5730   -38.5260   -23.1080 H     1 <1>   0.0800 
 36 H2     -14.2240   -38.0790   -21.4330 H     1 <1>   0.0800 
 37 C      -13.3660   -39.9630   -22.0420 C.3   1 <1>  -0.1600 
 38 H1     -12.4540   -39.5490   -22.4710 H     1 <1>   0.0800 
 39 H2     -13.1690   -40.2260   -21.0030 H     1 <1>   0.0800 
 40 C      -13.7700   -41.2270   -22.8150 C.3   1 <1>  -0.1600 
 41 H1     -13.0270   -42.0050   -22.6600 H     1 <1>   0.0800 
 42 H2     -13.7950   -41.0050   -23.8760 H     1 <1>   0.0800 
 43 C      -15.1430   -41.7660   -22.3970 C.3   1 <1>   0.3430 
 44 H1     -15.0400   -42.1830   -21.4060 H     1 <1>   0.0800 
 45 H2     -15.3870   -42.6200   -23.0160 H     1 <1>   0.0800 
 46 C      -18.2810   -38.4310   -23.7770 C.ar  1 <1>  -0.1500 
 47 H      -17.4230   -37.8590   -24.0120 H     1 <1>   0.1500 
 48 C      -19.4890   -37.7910   -23.5630 C.ar  1 <1>  -0.1500 
 49 H      -19.5570   -36.7350   -23.6380 H     1 <1>   0.1500 
 50 H      -24.1000   -41.3890   -22.3100 H     1 <1>   0.0800 
@<TRIPOS>BOND
  1   1   2  1   
  2   1   3  ar  
  3   1  48  ar  
  4   3   4  1   
  5   3  23  ar  
  6   4   5  1   
  7   4   6  1   
  8   4   7  1   
  9   7   8  1   
 10   7   9  1   
 11   7  20  1   
 12   9  10  1   
 13   9  14  1   
 14   9  50  1   
 15  10  11  1   
 16  10  12  1   
 17  10  13  1   
 18  14  15  1   
 19  14  16  1   
 20  14  17  1   
 21  17  18  1   
 22  17  19  1   
 23  17  20  1   
 24  20  21  1   
 25  20  22  1   
 26  23  24  1   
 27  23  25  ar  
 28  25  26  1   
 29  25  46  ar  
 30  26  27  1   
 31  26  28  1   
 32  26  29  1   
 33  29  30  1   
 34  29  31  1   
 35  29  43  1   
 36  31  32  1   
 37  31  33  1   
 38  31  34  1   
 39  34  35  1   
 40  34  36  1   
 41  34  37  1   
 42  37  38  1   
 43  37  39  1   
 44  37  40  1   
 45  40  41  1   
 46  40  42  1   
 47  40  43  1   
 48  43  44  1   
 49  43  45  1   
 50  46  47  1   
 51  46  48  ar  
 52  48  49  1   
@<TRIPOS>SUBSTRUCTURE
  1 ****  23 GROUP 4 **** **** 0
@<TRIPOS>PROPERTY_DATA
rseq	|	1
mseq	|	16
S	|	-7.11778974533081
rmsd_refine	|	0.75504994392395
E_conf	|	-139.06330871582
E_place	|	-71.6562652587891
E_score1	|	-10.3403549194336
E_refine	|	-35.9884300231934
E_score2	|	-7.11778974533081
Field_1	|	15
Field_2	|	cc-2-65
E_orig	|	0.400000005960464
PLIF_pronum	|	1
PLIF_raw	|	[2,6787,438,7,0.9948472549]
FP:PLIF	|	4
PLIF_ligidx	|	2

# MOE 2020.09 (io_trps.svl 2020.11)

@<TRIPOS>MOLECULE
2XQJ
50 52 1 0 0 
SMALL
USER_CHARGES


@<TRIPOS>ATOM
  1 C      -18.3790   -38.5880   -23.8210 C.ar  1 <1>  -0.1710 
  2 O      -17.2100   -38.2480   -24.2230 O.3   1 <1>  -0.8290 
  3 C      -18.6940   -39.9120   -23.4150 C.ar  1 <1>  -0.1440 
  4 C      -17.7330   -41.0840   -23.4550 C.3   1 <1>   0.4870 
  5 H1     -18.0490   -41.6870   -24.2960 H     1 <1>   0.0800 
  6 H2     -17.9560   -41.7200   -22.6100 H     1 <1>   0.0800 
  7 N      -16.2640   -40.8430   -23.5470 N.4   1 <1>  -0.9590 
  8 H      -16.1460   -40.0330   -24.1450 H     1 <1>   0.4500 
  9 C      -15.5360   -40.5510   -22.2670 C.3   1 <1>   0.4230 
 10 C      -15.6010   -39.1120   -21.7490 C.3   1 <1>  -0.2400 
 11 H1     -15.2040   -38.4190   -22.4900 H     1 <1>   0.0800 
 12 H2     -15.0060   -39.0140   -20.8420 H     1 <1>   0.0800 
 13 H3     -16.6280   -38.8320   -21.5180 H     1 <1>   0.0800 
 14 C      -14.0940   -41.0120   -22.4880 C.3   1 <1>  -0.1600 
 15 H1     -13.5170   -40.1990   -22.9330 H     1 <1>   0.0800 
 16 H2     -13.6220   -41.3220   -21.5570 H     1 <1>   0.0800 
 17 C      -14.1910   -42.1550   -23.4970 C.3   1 <1>  -0.1600 
 18 H1     -14.1380   -43.1190   -22.9940 H     1 <1>   0.0800 
 19 H2     -13.4110   -42.0750   -24.2490 H     1 <1>   0.0800 
 20 C      -15.5610   -42.0120   -24.1510 C.3   1 <1>   0.3430 
 21 H1     -16.1050   -42.9340   -23.9910 H     1 <1>   0.0800 
 22 H2     -15.4670   -41.9420   -25.2260 H     1 <1>   0.0800 
 23 C      -19.9770   -40.2140   -22.9960 C.ar  1 <1>  -0.1500 
 24 H      -20.2020   -41.2110   -22.7160 H     1 <1>   0.1500 
 25 C      -20.9780   -39.2480   -22.9380 C.ar  1 <1>  -0.1440 
 26 C      -22.3430   -39.6320   -22.4280 C.3   1 <1>   0.4860 
 27 H1     -22.8730   -40.1410   -23.2220 H     1 <1>   0.0800 
 28 H2     -22.9170   -38.7290   -22.2660 H     1 <1>   0.0800 
 29 N      -22.2620   -40.4710   -21.1850 N.4   1 <1>  -0.9590 
 30 H      -21.2730   -40.5550   -20.9980 H     1 <1>   0.4500 
 31 C      -22.7770   -41.8740   -21.3770 C.3   1 <1>   0.3430 
 32 H1     -22.4220   -42.3050   -22.3040 H     1 <1>   0.0800 
 33 H2     -22.3800   -42.5310   -20.6140 H     1 <1>   0.0800 
 34 C      -24.3030   -41.9920   -21.3340 C.3   1 <1>  -0.1600 
 35 H1     -24.7140   -41.4900   -22.2080 H     1 <1>   0.0800 
 36 H2     -24.5780   -43.0470   -21.3800 H     1 <1>   0.0800 
 37 C      -24.8840   -41.3600   -20.0640 C.3   1 <1>  -0.1600 
 38 H1     -25.9680   -41.3260   -20.1440 H     1 <1>   0.0800 
 39 H2     -24.6120   -41.9690   -19.2020 H     1 <1>   0.0800 
 40 C      -24.3710   -39.9290   -19.8700 C.3   1 <1>  -0.1600 
 41 H1     -24.6440   -39.5790   -18.8760 H     1 <1>   0.0800 
 42 H2     -24.8280   -39.2820   -20.6210 H     1 <1>   0.0800 
 43 C      -22.8570   -39.7980   -19.9920 C.3   1 <1>   0.3430 
 44 H1     -22.4110   -40.1750   -19.0860 H     1 <1>   0.0800 
 45 H2     -22.6270   -38.7440   -19.9690 H     1 <1>   0.0800 
 46 C      -20.6820   -37.9470   -23.3380 C.ar  1 <1>  -0.1500 
 47 H      -21.4320   -37.1970   -23.3090 H     1 <1>   0.1500 
 48 C      -19.4110   -37.6220   -23.7770 C.ar  1 <1>  -0.1500 
 49 H      -19.2030   -36.6310   -24.0880 H     1 <1>   0.1500 
 50 H      -15.9320   -41.1830   -21.4850 H     1 <1>   0.0800 
@<TRIPOS>BOND
  1   1   2  1   
  2   1   3  ar  
  3   1  48  ar  
  4   3   4  1   
  5   3  23  ar  
  6   4   5  1   
  7   4   6  1   
  8   4   7  1   
  9   7   8  1   
 10   7   9  1   
 11   7  20  1   
 12   9  10  1   
 13   9  14  1   
 14   9  50  1   
 15  10  11  1   
 16  10  12  1   
 17  10  13  1   
 18  14  15  1   
 19  14  16  1   
 20  14  17  1   
 21  17  18  1   
 22  17  19  1   
 23  17  20  1   
 24  20  21  1   
 25  20  22  1   
 26  23  24  1   
 27  23  25  ar  
 28  25  26  1   
 29  25  46  ar  
 30  26  27  1   
 31  26  28  1   
 32  26  29  1   
 33  29  30  1   
 34  29  31  1   
 35  29  43  1   
 36  31  32  1   
 37  31  33  1   
 38  31  34  1   
 39  34  35  1   
 40  34  36  1   
 41  34  37  1   
 42  37  38  1   
 43  37  39  1   
 44  37  40  1   
 45  40  41  1   
 46  40  42  1   
 47  40  43  1   
 48  43  44  1   
 49  43  45  1   
 50  46  47  1   
 51  46  48  ar  
 52  48  49  1   
@<TRIPOS>SUBSTRUCTURE
  1 ****  23 GROUP 4 **** **** 0
@<TRIPOS>PROPERTY_DATA
rseq	|	1
mseq	|	16
S	|	-7.0779128074646
rmsd_refine	|	1.71974360942841
E_conf	|	-131.128295898438
E_place	|	-54.7323760986328
E_score1	|	-9.88477420806885
E_refine	|	-34.5529899597168
E_score2	|	-7.0779128074646
Field_1	|	15
Field_2	|	cc-2-65
E_orig	|	0.60206925868988
PLIF_pronum	|	1
PLIF_raw	|	[2,1790,117,4,0.5]
FP:PLIF	|	20
PLIF_ligidx	|	2

# MOE 2020.09 (io_trps.svl 2020.11)

@<TRIPOS>MOLECULE
2XQJ
50 52 1 0 0 
SMALL
USER_CHARGES


@<TRIPOS>ATOM
  1 C      -20.8940   -38.7630   -23.7850 C.ar  1 <1>  -0.1710 
  2 O      -21.9710   -38.0700   -23.7810 O.3   1 <1>  -0.8290 
  3 C      -20.9210   -40.1600   -23.5870 C.ar  1 <1>  -0.1440 
  4 C      -22.2460   -40.8580   -23.4030 C.3   1 <1>   0.4870 
  5 H1     -22.2240   -41.7760   -23.9740 H     1 <1>   0.0800 
  6 H2     -23.0040   -40.2680   -23.9020 H     1 <1>   0.0800 
  7 N      -22.6050   -41.1110   -21.9710 N.4   1 <1>  -0.9590 
  8 H      -21.8540   -40.7350   -21.4130 H     1 <1>   0.4500 
  9 C      -23.8630   -40.4120   -21.5750 C.3   1 <1>   0.4230 
 10 C      -23.6580   -39.0960   -20.8260 C.3   1 <1>  -0.2400 
 11 H1     -24.6220   -38.6320   -20.6200 H     1 <1>   0.0800 
 12 H2     -23.0790   -38.3980   -21.4300 H     1 <1>   0.0800 
 13 H3     -23.1370   -39.2610   -19.8830 H     1 <1>   0.0800 
 14 C      -24.7340   -41.4100   -20.8030 C.3   1 <1>  -0.1600 
 15 H1     -24.5650   -41.2950   -19.7310 H     1 <1>   0.0800 
 16 H2     -25.7910   -41.2710   -21.0300 H     1 <1>   0.0800 
 17 C      -24.2360   -42.7860   -21.2360 C.3   1 <1>  -0.1600 
 18 H1     -24.7930   -43.1150   -22.1140 H     1 <1>   0.0800 
 19 H2     -24.3230   -43.5200   -20.4340 H     1 <1>   0.0800 
 20 C      -22.7820   -42.5600   -21.6390 C.3   1 <1>   0.3430 
 21 H1     -22.5130   -43.2260   -22.4490 H     1 <1>   0.0800 
 22 H2     -22.1460   -42.8530   -20.8140 H     1 <1>   0.0800 
 23 C      -19.7440   -40.8870   -23.5450 C.ar  1 <1>  -0.1500 
 24 H      -19.7850   -41.9330   -23.3780 H     1 <1>   0.1500 
 25 C      -18.5080   -40.2690   -23.7240 C.ar  1 <1>  -0.1440 
 26 C      -17.2660   -41.1320   -23.6570 C.3   1 <1>   0.4860 
 27 H1     -17.1920   -41.6630   -24.5970 H     1 <1>   0.0800 
 28 H2     -17.4660   -41.9180   -22.9410 H     1 <1>   0.0800 
 29 N      -15.9660   -40.4550   -23.3300 N.4   1 <1>  -0.9590 
 30 H      -15.7560   -39.8540   -24.1130 H     1 <1>   0.4500 
 31 C      -14.8340   -41.4500   -23.2390 C.3   1 <1>   0.3430 
 32 H1     -15.1970   -42.4420   -23.0050 H     1 <1>   0.0800 
 33 H2     -14.3530   -41.5780   -24.1990 H     1 <1>   0.0800 
 34 C      -13.7570   -41.1000   -22.2080 C.3   1 <1>  -0.1600 
 35 H1     -14.1250   -41.3880   -21.2260 H     1 <1>   0.0800 
 36 H2     -12.8590   -41.6660   -22.4350 H     1 <1>   0.0800 
 37 C      -13.4430   -39.6040   -22.1590 C.3   1 <1>  -0.1600 
 38 H1     -12.7260   -39.4320   -21.3610 H     1 <1>   0.0800 
 39 H2     -12.9950   -39.3000   -23.1050 H     1 <1>   0.0800 
 40 C      -14.7090   -38.7730   -21.8900 C.3   1 <1>  -0.1600 
 41 H1     -14.6970   -37.9060   -22.5500 H     1 <1>   0.0800 
 42 H2     -14.6950   -38.4150   -20.8610 H     1 <1>   0.0800 
 43 C      -16.0120   -39.5580   -22.1150 C.3   1 <1>   0.3430 
 44 H1     -16.2030   -40.1420   -21.2250 H     1 <1>   0.0800 
 45 H2     -16.8340   -38.8570   -22.1440 H     1 <1>   0.0800 
 46 C      -18.4740   -38.8930   -23.9700 C.ar  1 <1>  -0.1500 
 47 H      -17.5530   -38.4020   -24.1400 H     1 <1>   0.1500 
 48 C      -19.6410   -38.1500   -23.9920 C.ar  1 <1>  -0.1500 
 49 H      -19.6060   -37.1050   -24.1680 H     1 <1>   0.1500 
 50 H      -24.4090   -40.1670   -22.4740 H     1 <1>   0.0800 
@<TRIPOS>BOND
  1   1   2  1   
  2   1   3  ar  
  3   1  48  ar  
  4   3   4  1   
  5   3  23  ar  
  6   4   5  1   
  7   4   6  1   
  8   4   7  1   
  9   7   8  1   
 10   7   9  1   
 11   7  20  1   
 12   9  10  1   
 13   9  14  1   
 14   9  50  1   
 15  10  11  1   
 16  10  12  1   
 17  10  13  1   
 18  14  15  1   
 19  14  16  1   
 20  14  17  1   
 21  17  18  1   
 22  17  19  1   
 23  17  20  1   
 24  20  21  1   
 25  20  22  1   
 26  23  24  1   
 27  23  25  ar  
 28  25  26  1   
 29  25  46  ar  
 30  26  27  1   
 31  26  28  1   
 32  26  29  1   
 33  29  30  1   
 34  29  31  1   
 35  29  43  1   
 36  31  32  1   
 37  31  33  1   
 38  31  34  1   
 39  34  35  1   
 40  34  36  1   
 41  34  37  1   
 42  37  38  1   
 43  37  39  1   
 44  37  40  1   
 45  40  41  1   
 46  40  42  1   
 47  40  43  1   
 48  43  44  1   
 49  43  45  1   
 50  46  47  1   
 51  46  48  ar  
 52  48  49  1   
@<TRIPOS>SUBSTRUCTURE
  1 ****  23 GROUP 4 **** **** 0
@<TRIPOS>PROPERTY_DATA
rseq	|	1
mseq	|	16
S	|	-6.99432897567749
rmsd_refine	|	1.55360317230225
E_conf	|	-130.257781982422
E_place	|	-49.5455894470215
E_score1	|	-9.89864158630371
E_refine	|	-37.3836822509766
E_score2	|	-6.99432897567749
Field_1	|	15
Field_2	|	cc-2-65
E_orig	|	1.42163586616516
PLIF_pronum	|	1
PLIF_raw	|	[[4,4,4,4,4],[1242,1245,1248,1246,1243],[82,82,82,82,82],[10,10,10,10,10],[0.5,0.5,0.5,0.5,0.5]]
FP:PLIF	|	2
PLIF_ligidx	|	[[4,4,4,4,4]]

# MOE 2020.09 (io_trps.svl 2020.11)

@<TRIPOS>MOLECULE
2XQJ
49 50 1 0 0 
SMALL
USER_CHARGES


@<TRIPOS>ATOM
  1 C      -20.1080   -39.4370   -23.3210 C.ar  1 <1>  -0.1710 
  2 O      -19.8280   -38.7440   -22.2820 O.3   1 <1>  -0.8290 
  3 C      -21.4320   -39.5400   -23.8040 C.ar  1 <1>  -0.1440 
  4 C      -22.5770   -38.8560   -23.0900 C.3   1 <1>   0.4870 
  5 H1     -22.1630   -38.0610   -22.4830 H     1 <1>   0.0800 
  6 H2     -23.1440   -38.3230   -23.8410 H     1 <1>   0.0800 
  7 N      -23.4900   -39.7480   -22.2730 N.4   1 <1>  -0.9590 
  8 H      -24.4290   -39.4410   -22.4840 H     1 <1>   0.4500 
  9 C      -23.3240   -39.5400   -20.8020 C.3   1 <1>   0.3430 
 10 H1     -23.4820   -38.5050   -20.5300 H     1 <1>   0.0800 
 11 H2     -22.3070   -39.7450   -20.4960 H     1 <1>   0.0800 
 12 C      -24.2620   -40.4160   -19.9630 C.3   1 <1>  -0.1600 
 13 H1     -25.2880   -40.1430   -20.2020 H     1 <1>   0.0800 
 14 H2     -24.0880   -40.2210   -18.9070 H     1 <1>   0.0800 
 15 C      -24.0790   -41.9070   -20.2770 C.3   1 <1>  -0.1600 
 16 H1     -23.0590   -42.2150   -20.0430 H     1 <1>   0.0800 
 17 H2     -24.7750   -42.5030   -19.6860 H     1 <1>   0.0800 
 18 C      -24.3270   -42.1310   -21.7710 C.3   1 <1>  -0.1600 
 19 H1     -25.3720   -41.9200   -21.9950 H     1 <1>   0.0800 
 20 H2     -24.1230   -43.1720   -22.0250 H     1 <1>   0.0800 
 21 C      -23.4380   -41.2220   -22.6310 C.3   1 <1>   0.3430 
 22 H1     -22.4240   -41.5930   -22.5530 H     1 <1>   0.0800 
 23 H2     -23.6980   -41.3850   -23.6680 H     1 <1>   0.0800 
 24 C      -21.7070   -40.2960   -24.9290 C.ar  1 <1>  -0.1500 
 25 H      -22.7030   -40.3690   -25.2710 H     1 <1>   0.1500 
 26 C      -20.7030   -40.9760   -25.6080 C.ar  1 <1>  -0.1440 
 27 C      -21.0470   -41.8300   -26.8010 C.3   1 <1>   0.4860 
 28 H1     -20.1210   -42.1880   -27.2260 H     1 <1>   0.0800 
 29 H2     -21.4980   -42.7330   -26.4120 H     1 <1>   0.0800 
 30 N      -21.9360   -41.2110   -27.8620 N.4   1 <1>  -0.9590 
 31 H      -22.8180   -41.0120   -27.4140 H     1 <1>   0.4500 
 32 C      -21.4170   -39.8830   -28.3840 C.3   1 <1>   0.3430 
 33 H1     -20.3720   -39.7600   -28.1400 H     1 <1>   0.0800 
 34 H2     -21.4240   -39.8780   -29.4650 H     1 <1>   0.0800 
 35 C      -22.1290   -38.6070   -27.9200 C.3   1 <1>  -0.2400 
 36 H1     -21.6480   -37.7380   -28.3680 H     1 <1>   0.0800 
 37 H2     -23.1710   -38.5980   -28.2270 H     1 <1>   0.0800 
 38 H3     -22.0760   -38.4900   -26.8400 H     1 <1>   0.0800 
 39 C      -22.2460   -42.1760   -28.9920 C.3   1 <1>   0.3430 
 40 H1     -21.6100   -41.9910   -29.8410 H     1 <1>   0.0800 
 41 H2     -23.2280   -41.9920   -29.3960 H     1 <1>   0.0800 
 42 C      -22.1770   -43.6750   -28.6880 C.3   1 <1>  -0.2400 
 43 H1     -22.8890   -43.9240   -27.9040 H     1 <1>   0.0800 
 44 H2     -21.1830   -43.9840   -28.3710 H     1 <1>   0.0800 
 45 H3     -22.4260   -44.2400   -29.5860 H     1 <1>   0.0800 
 46 C      -19.3930   -40.8880   -25.1400 C.ar  1 <1>  -0.1500 
 47 H      -18.6170   -41.4070   -25.6400 H     1 <1>   0.1500 
 48 C      -19.0960   -40.1300   -24.0200 C.ar  1 <1>  -0.1500 
 49 H      -18.0980   -40.0690   -23.6700 H     1 <1>   0.1500 
@<TRIPOS>BOND
  1   1   2  1   
  2   1   3  ar  
  3   1  48  ar  
  4   3   4  1   
  5   3  24  ar  
  6   4   5  1   
  7   4   6  1   
  8   4   7  1   
  9   7   8  1   
 10   7   9  1   
 11   7  21  1   
 12   9  10  1   
 13   9  11  1   
 14   9  12  1   
 15  12  13  1   
 16  12  14  1   
 17  12  15  1   
 18  15  16  1   
 19  15  17  1   
 20  15  18  1   
 21  18  19  1   
 22  18  20  1   
 23  18  21  1   
 24  21  22  1   
 25  21  23  1   
 26  24  25  1   
 27  24  26  ar  
 28  26  27  1   
 29  26  46  ar  
 30  27  28  1   
 31  27  29  1   
 32  27  30  1   
 33  30  31  1   
 34  30  32  1   
 35  30  39  1   
 36  32  33  1   
 37  32  34  1   
 38  32  35  1   
 39  35  36  1   
 40  35  37  1   
 41  35  38  1   
 42  39  40  1   
 43  39  41  1   
 44  39  42  1   
 45  42  43  1   
 46  42  44  1   
 47  42  45  1   
 48  46  47  1   
 49  46  48  ar  
 50  48  49  1   
@<TRIPOS>SUBSTRUCTURE
  1 ****  24 GROUP 4 **** **** 0
@<TRIPOS>PROPERTY_DATA
rseq	|	1
mseq	|	17
S	|	-6.94212770462036
rmsd_refine	|	2.11169767379761
E_conf	|	-138.179946899414
E_place	|	-45.7326354980469
E_score1	|	-9.84801292419434
E_refine	|	-34.6127166748047
E_score2	|	-6.94212770462036
Field_1	|	16
Field_2	|	cc-2-76
E_orig	|	1.93328237533569
PLIF_pronum	|	1
PLIF_raw	|	[[39,2,4,4,4,4,4,4],[1238,6787,1245,1249,1253,1255,1251,1248],[82,438,82,82,82,82,82,82],[3,7,10,10,10,10,10,10],[0.5,4.567611263,0.6,0.6,0.6,0.6,0.6,0.6]]
FP:PLIF	|	1 2 4 11
PLIF_ligidx	|	[39,[4,4,4,4,4,4],2,2]

# MOE 2020.09 (io_trps.svl 2020.11)

@<TRIPOS>MOLECULE
2XQJ
49 50 1 0 0 
SMALL
USER_CHARGES


@<TRIPOS>ATOM
  1 C      -18.3800   -38.4390   -24.0770 C.ar  1 <1>  -0.1710 
  2 O      -17.1850   -37.9960   -24.2330 O.3   1 <1>  -0.8290 
  3 C      -18.6630   -39.8120   -23.8400 C.ar  1 <1>  -0.1440 
  4 C      -17.5900   -40.8760   -23.6680 C.3   1 <1>   0.4870 
  5 H1     -17.9590   -41.5840   -22.9390 H     1 <1>   0.0800 
  6 H2     -17.5780   -41.4500   -24.5850 H     1 <1>   0.0800 
  7 N      -16.1970   -40.4510   -23.3150 N.4   1 <1>  -0.9590 
  8 H      -15.9360   -39.7930   -24.0380 H     1 <1>   0.4500 
  9 C      -15.2230   -41.5940   -23.3520 C.3   1 <1>   0.3430 
 10 H1     -15.2150   -42.0780   -24.3200 H     1 <1>   0.0800 
 11 H2     -15.5270   -42.3760   -22.6690 H     1 <1>   0.0800 
 12 C      -13.7860   -41.2000   -22.9940 C.3   1 <1>  -0.1600 
 13 H1     -13.3890   -40.5730   -23.7840 H     1 <1>   0.0800 
 14 H2     -13.1790   -42.1020   -22.9230 H     1 <1>   0.0800 
 15 C      -13.7080   -40.4190   -21.6820 C.3   1 <1>  -0.1600 
 16 H1     -14.0200   -41.0850   -20.8840 H     1 <1>   0.0800 
 17 H2     -12.6860   -40.0860   -21.5030 H     1 <1>   0.0800 
 18 C      -14.6610   -39.2200   -21.7150 C.3   1 <1>  -0.1600 
 19 H1     -14.6430   -38.7130   -20.7520 H     1 <1>   0.0800 
 20 H2     -14.3350   -38.5150   -22.4820 H     1 <1>   0.0800 
 21 C      -16.0920   -39.6710   -22.0320 C.3   1 <1>   0.3430 
 22 H1     -16.7340   -38.8000   -22.0400 H     1 <1>   0.0800 
 23 H2     -16.4470   -40.2530   -21.1940 H     1 <1>   0.0800 
 24 C      -19.9800   -40.2460   -23.8090 C.ar  1 <1>  -0.1500 
 25 H      -20.1810   -41.2780   -23.6720 H     1 <1>   0.1500 
 26 C      -21.0460   -39.3620   -23.9720 C.ar  1 <1>  -0.1440 
 27 C      -22.4630   -39.8780   -24.0020 C.3   1 <1>   0.4860 
 28 H1     -23.1320   -39.0420   -24.1550 H     1 <1>   0.0800 
 29 H2     -22.5710   -40.4550   -24.9110 H     1 <1>   0.0800 
 30 N      -22.8620   -40.6860   -22.8040 N.4   1 <1>  -0.9590 
 31 H      -21.9990   -40.9900   -22.3770 H     1 <1>   0.4500 
 32 C      -23.5600   -39.8340   -21.7790 C.3   1 <1>   0.3430 
 33 H1     -23.3980   -38.7830   -21.9820 H     1 <1>   0.0800 
 34 H2     -24.6320   -39.9430   -21.8460 H     1 <1>   0.0800 
 35 C      -23.1440   -40.0850   -20.3280 C.3   1 <1>  -0.2400 
 36 H1     -23.6620   -39.3920   -19.6660 H     1 <1>   0.0800 
 37 H2     -23.4000   -41.0980   -20.0240 H     1 <1>   0.0800 
 38 H3     -22.0700   -39.9450   -20.2060 H     1 <1>   0.0800 
 39 C      -23.5990   -41.9390   -23.2180 C.3   1 <1>   0.3430 
 40 H1     -22.9450   -42.5880   -23.7850 H     1 <1>   0.0800 
 41 H2     -24.3770   -41.7050   -23.9290 H     1 <1>   0.0800 
 42 C      -24.2320   -42.7860   -22.1100 C.3   1 <1>  -0.2400 
 43 H1     -24.9800   -42.2160   -21.5610 H     1 <1>   0.0800 
 44 H2     -23.4730   -43.1480   -21.4170 H     1 <1>   0.0800 
 45 H3     -24.7320   -43.6460   -22.5540 H     1 <1>   0.0800 
 46 C      -20.7760   -38.0050   -24.1360 C.ar  1 <1>  -0.1500 
 47 H      -21.5740   -37.3150   -24.2420 H     1 <1>   0.1500 
 48 C      -19.4720   -37.5490   -24.1810 C.ar  1 <1>  -0.1500 
 49 H      -19.2840   -36.5150   -24.3180 H     1 <1>   0.1500 
@<TRIPOS>BOND
  1   1   2  1   
  2   1   3  ar  
  3   1  48  ar  
  4   3   4  1   
  5   3  24  ar  
  6   4   5  1   
  7   4   6  1   
  8   4   7  1   
  9   7   8  1   
 10   7   9  1   
 11   7  21  1   
 12   9  10  1   
 13   9  11  1   
 14   9  12  1   
 15  12  13  1   
 16  12  14  1   
 17  12  15  1   
 18  15  16  1   
 19  15  17  1   
 20  15  18  1   
 21  18  19  1   
 22  18  20  1   
 23  18  21  1   
 24  21  22  1   
 25  21  23  1   
 26  24  25  1   
 27  24  26  ar  
 28  26  27  1   
 29  26  46  ar  
 30  27  28  1   
 31  27  29  1   
 32  27  30  1   
 33  30  31  1   
 34  30  32  1   
 35  30  39  1   
 36  32  33  1   
 37  32  34  1   
 38  32  35  1   
 39  35  36  1   
 40  35  37  1   
 41  35  38  1   
 42  39  40  1   
 43  39  41  1   
 44  39  42  1   
 45  42  43  1   
 46  42  44  1   
 47  42  45  1   
 48  46  47  1   
 49  46  48  ar  
 50  48  49  1   
@<TRIPOS>SUBSTRUCTURE
  1 ****   3 GROUP 4 **** **** 0
@<TRIPOS>PROPERTY_DATA
rseq	|	1
mseq	|	17
S	|	-6.84765291213989
rmsd_refine	|	1.55216920375824
E_conf	|	-137.767272949219
E_place	|	-62.6658477783203
E_score1	|	-9.64334964752197
E_refine	|	-34.6922225952148
E_score2	|	-6.84765291213989
Field_1	|	16
Field_2	|	cc-2-76
E_orig	|	1.11109435558319
PLIF_pronum	|	1
PLIF_raw	|	[[2,1,48,46,26,24,3],[1790,6787,6787,6787,6787,6787,6787],[117,438,438,438,438,438,438],[4,10,10,10,10,10,10],[1.2,1,1,1,1,1,1]]
FP:PLIF	|	20 14 28
PLIF_ligidx	|	[2,[1,48,46,26,24,3],[1,48,46,26,24,3]]

# MOE 2020.09 (io_trps.svl 2020.11)

@<TRIPOS>MOLECULE
2XQJ
49 50 1 0 0 
SMALL
USER_CHARGES


@<TRIPOS>ATOM
  1 C      -19.6010   -39.5670   -23.2940 C.ar  1 <1>  -0.1710 
  2 O      -19.1610   -39.2530   -22.1290 O.3   1 <1>  -0.8290 
  3 C      -19.0440   -40.6280   -24.0510 C.ar  1 <1>  -0.1440 
  4 C      -17.9270   -41.4760   -23.4690 C.3   1 <1>   0.4870 
  5 H1     -18.2310   -41.7460   -22.4680 H     1 <1>   0.0800 
  6 H2     -17.9510   -42.4220   -23.9920 H     1 <1>   0.0800 
  7 N      -16.5190   -40.9210   -23.4660 N.4   1 <1>  -0.9590 
  8 H      -16.3460   -40.5460   -24.3860 H     1 <1>   0.4500 
  9 C      -15.5100   -42.0170   -23.2220 C.3   1 <1>   0.3430 
 10 H1     -15.5250   -42.7520   -24.0160 H     1 <1>   0.0800 
 11 H2     -15.7780   -42.5850   -22.3400 H     1 <1>   0.0800 
 12 C      -14.0640   -41.5400   -23.0310 C.3   1 <1>  -0.1600 
 13 H1     -13.6880   -41.1460   -23.9690 H     1 <1>   0.0800 
 14 H2     -13.4430   -42.3910   -22.7620 H     1 <1>   0.0800 
 15 C      -13.9530   -40.4590   -21.9520 C.3   1 <1>  -0.1600 
 16 H1     -14.2300   -40.8970   -20.9950 H     1 <1>   0.0800 
 17 H2     -12.9260   -40.0940   -21.8930 H     1 <1>   0.0800 
 18 C      -14.9080   -39.3010   -22.2680 C.3   1 <1>  -0.1600 
 19 H1     -14.5690   -38.7860   -23.1650 H     1 <1>   0.0800 
 20 H2     -14.8960   -38.5890   -21.4420 H     1 <1>   0.0800 
 21 C      -16.3510   -39.7810   -22.4860 C.3   1 <1>   0.3430 
 22 H1     -16.7480   -40.0560   -21.5190 H     1 <1>   0.0800 
 23 H2     -16.9490   -38.9270   -22.7730 H     1 <1>   0.0800 
 24 C      -19.5780   -40.9580   -25.2930 C.ar  1 <1>  -0.1500 
 25 H      -19.1470   -41.7490   -25.8490 H     1 <1>   0.1500 
 26 C      -20.6940   -40.2860   -25.8050 C.ar  1 <1>  -0.1440 
 27 C      -21.3540   -40.6380   -27.1290 C.3   1 <1>   0.4860 
 28 H1     -22.3620   -40.2530   -27.0790 H     1 <1>   0.0800 
 29 H2     -20.8980   -40.0170   -27.8880 H     1 <1>   0.0800 
 30 N      -21.3820   -42.0860   -27.5820 N.4   1 <1>  -0.9590 
 31 H      -20.4520   -42.2680   -27.9360 H     1 <1>   0.4500 
 32 C      -21.6220   -43.0970   -26.4800 C.3   1 <1>   0.3430 
 33 H1     -21.4980   -44.1010   -26.8600 H     1 <1>   0.0800 
 34 H2     -20.8570   -43.0270   -25.7200 H     1 <1>   0.0800 
 35 C      -22.9750   -43.0390   -25.7670 C.3   1 <1>  -0.2400 
 36 H1     -23.0080   -43.7890   -24.9770 H     1 <1>   0.0800 
 37 H2     -23.1280   -42.0630   -25.3070 H     1 <1>   0.0800 
 38 H3     -23.7880   -43.2480   -26.4620 H     1 <1>   0.0800 
 39 C      -22.3150   -42.2590   -28.7530 C.3   1 <1>   0.3430 
 40 H1     -22.2300   -41.4230   -29.4350 H     1 <1>   0.0800 
 41 H2     -23.3450   -42.2120   -28.4260 H     1 <1>   0.0800 
 42 C      -22.1510   -43.5370   -29.5820 C.3   1 <1>  -0.2400 
 43 H1     -22.2450   -44.4190   -28.9520 H     1 <1>   0.0800 
 44 H2     -21.1950   -43.5670   -30.0920 H     1 <1>   0.0800 
 45 H3     -22.9150   -43.5770   -30.3550 H     1 <1>   0.0800 
 46 C      -21.2290   -39.2290   -25.0690 C.ar  1 <1>  -0.1500 
 47 H      -22.0630   -38.6930   -25.4450 H     1 <1>   0.1500 
 48 C      -20.6930   -38.8680   -23.8470 C.ar  1 <1>  -0.1500 
 49 H      -21.1150   -38.0610   -23.3030 H     1 <1>   0.1500 
@<TRIPOS>BOND
  1   1   2  1   
  2   1   3  ar  
  3   1  48  ar  
  4   3   4  1   
  5   3  24  ar  
  6   4   5  1   
  7   4   6  1   
  8   4   7  1   
  9   7   8  1   
 10   7   9  1   
 11   7  21  1   
 12   9  10  1   
 13   9  11  1   
 14   9  12  1   
 15  12  13  1   
 16  12  14  1   
 17  12  15  1   
 18  15  16  1   
 19  15  17  1   
 20  15  18  1   
 21  18  19  1   
 22  18  20  1   
 23  18  21  1   
 24  21  22  1   
 25  21  23  1   
 26  24  25  1   
 27  24  26  ar  
 28  26  27  1   
 29  26  46  ar  
 30  27  28  1   
 31  27  29  1   
 32  27  30  1   
 33  30  31  1   
 34  30  32  1   
 35  30  39  1   
 36  32  33  1   
 37  32  34  1   
 38  32  35  1   
 39  35  36  1   
 40  35  37  1   
 41  35  38  1   
 42  39  40  1   
 43  39  41  1   
 44  39  42  1   
 45  42  43  1   
 46  42  44  1   
 47  42  45  1   
 48  46  47  1   
 49  46  48  ar  
 50  48  49  1   
@<TRIPOS>SUBSTRUCTURE
  1 ****   3 GROUP 4 **** **** 0
@<TRIPOS>PROPERTY_DATA
rseq	|	1
mseq	|	17
S	|	-6.84016370773315
rmsd_refine	|	2.53084826469421
E_conf	|	-141.103698730469
E_place	|	-46.0891456604004
E_score1	|	-11.1841325759888
E_refine	|	-37.4597282409668
E_score2	|	-6.84016370773315
Field_1	|	16
Field_2	|	cc-2-76
E_orig	|	2.40000009536743
PLIF_pronum	|	1
PLIF_raw	|	[[30,2],[1842,6787],[120,438],[1,7],[3.2,2.905179453]]
FP:PLIF	|	17 19 4
PLIF_ligidx	|	[30,30,2]

# MOE 2020.09 (io_trps.svl 2020.11)

@<TRIPOS>MOLECULE
2XQJ
49 50 1 0 0 
SMALL
USER_CHARGES


@<TRIPOS>ATOM
  1 C      -18.5160   -38.5150   -23.9330 C.ar  1 <1>  -0.1710 
  2 O      -17.3830   -38.0110   -24.2720 O.3   1 <1>  -0.8290 
  3 C      -18.6820   -39.9040   -23.6990 C.ar  1 <1>  -0.1440 
  4 C      -17.5390   -40.8950   -23.8180 C.3   1 <1>   0.4870 
  5 H1     -17.8300   -41.7780   -23.2670 H     1 <1>   0.0800 
  6 H2     -17.5220   -41.2370   -24.8450 H     1 <1>   0.0800 
  7 N      -16.1670   -40.4560   -23.3950 N.4   1 <1>  -0.9590 
  8 H      -15.8840   -39.7830   -24.0950 H     1 <1>   0.4500 
  9 C      -15.1790   -41.5870   -23.4130 C.3   1 <1>   0.3430 
 10 H1     -15.1280   -42.0550   -24.3880 H     1 <1>   0.0800 
 11 H2     -15.5010   -42.3850   -22.7560 H     1 <1>   0.0800 
 12 C      -13.7630   -41.1840   -22.9920 C.3   1 <1>  -0.1600 
 13 H1     -13.1470   -42.0790   -22.9180 H     1 <1>   0.0800 
 14 H2     -13.3470   -40.5320   -23.7520 H     1 <1>   0.0800 
 15 C      -13.7460   -40.4330   -21.6610 C.3   1 <1>  -0.1600 
 16 H1     -14.0870   -41.1160   -20.8890 H     1 <1>   0.0800 
 17 H2     -12.7340   -40.0950   -21.4320 H     1 <1>   0.0800 
 18 C      -14.7050   -39.2400   -21.7140 C.3   1 <1>  -0.1600 
 19 H1     -14.7300   -38.7490   -20.7440 H     1 <1>   0.0800 
 20 H2     -14.3530   -38.5200   -22.4550 H     1 <1>   0.0800 
 21 C      -16.1190   -39.6950   -22.0950 C.3   1 <1>   0.3430 
 22 H1     -16.5040   -40.2930   -21.2820 H     1 <1>   0.0800 
 23 H2     -16.7640   -38.8270   -22.1130 H     1 <1>   0.0800 
 24 C      -19.9330   -40.4120   -23.3850 C.ar  1 <1>  -0.1500 
 25 H      -20.0380   -41.4560   -23.2470 H     1 <1>   0.1500 
 26 C      -21.0510   -39.5830   -23.2560 C.ar  1 <1>  -0.1440 
 27 C      -22.4200   -40.1540   -22.9330 C.3   1 <1>   0.4860 
 28 H1     -22.9840   -39.3980   -22.4030 H     1 <1>   0.0800 
 29 H2     -22.9520   -40.2560   -23.8700 H     1 <1>   0.0800 
 30 N      -22.4170   -41.4600   -22.1740 N.4   1 <1>  -0.9590 
 31 H      -21.7720   -42.0560   -22.6720 H     1 <1>   0.4500 
 32 C      -21.8560   -41.3290   -20.7860 C.3   1 <1>   0.3430 
 33 H1     -21.0800   -40.5760   -20.7590 H     1 <1>   0.0800 
 34 H2     -22.6010   -40.9560   -20.0950 H     1 <1>   0.0800 
 35 C      -21.2560   -42.6180   -20.2150 C.3   1 <1>  -0.2400 
 36 H1     -20.8010   -42.4260   -19.2440 H     1 <1>   0.0800 
 37 H2     -22.0250   -43.3790   -20.0890 H     1 <1>   0.0800 
 38 H3     -20.4850   -43.0080   -20.8800 H     1 <1>   0.0800 
 39 C      -23.7360   -42.1740   -22.2180 C.3   1 <1>   0.3430 
 40 H1     -24.5600   -41.4890   -22.0650 H     1 <1>   0.0800 
 41 H2     -23.8230   -42.8710   -21.3940 H     1 <1>   0.0800 
 42 C      -23.9880   -42.9630   -23.5040 C.3   1 <1>  -0.2400 
 43 H1     -23.2100   -43.7130   -23.6480 H     1 <1>   0.0800 
 44 H2     -23.9980   -42.3030   -24.3710 H     1 <1>   0.0800 
 45 H3     -24.9460   -43.4780   -23.4500 H     1 <1>   0.0800 
 46 C      -20.8880   -38.2130   -23.4590 C.ar  1 <1>  -0.1500 
 47 H      -21.7210   -37.5620   -23.3690 H     1 <1>   0.1500 
 48 C      -19.6510   -37.6860   -23.7910 C.ar  1 <1>  -0.1500 
 49 H      -19.5500   -36.6430   -23.9510 H     1 <1>   0.1500 
@<TRIPOS>BOND
  1   1   2  1   
  2   1   3  ar  
  3   1  48  ar  
  4   3   4  1   
  5   3  24  ar  
  6   4   5  1   
  7   4   6  1   
  8   4   7  1   
  9   7   8  1   
 10   7   9  1   
 11   7  21  1   
 12   9  10  1   
 13   9  11  1   
 14   9  12  1   
 15  12  13  1   
 16  12  14  1   
 17  12  15  1   
 18  15  16  1   
 19  15  17  1   
 20  15  18  1   
 21  18  19  1   
 22  18  20  1   
 23  18  21  1   
 24  21  22  1   
 25  21  23  1   
 26  24  25  1   
 27  24  26  ar  
 28  26  27  1   
 29  26  46  ar  
 30  27  28  1   
 31  27  29  1   
 32  27  30  1   
 33  30  31  1   
 34  30  32  1   
 35  30  39  1   
 36  32  33  1   
 37  32  34  1   
 38  32  35  1   
 39  35  36  1   
 40  35  37  1   
 41  35  38  1   
 42  39  40  1   
 43  39  41  1   
 44  39  42  1   
 45  42  43  1   
 46  42  44  1   
 47  42  45  1   
 48  46  47  1   
 49  46  48  ar  
 50  48  49  1   
@<TRIPOS>SUBSTRUCTURE
  1 ****   3 GROUP 4 **** **** 0
@<TRIPOS>PROPERTY_DATA
rseq	|	1
mseq	|	17
S	|	-6.79911327362061
rmsd_refine	|	0.831860721111298
E_conf	|	-141.001663208008
E_place	|	-72.9626083374023
E_score1	|	-9.97769069671631
E_refine	|	-35.281307220459
E_score2	|	-6.79911327362061
Field_1	|	16
Field_2	|	cc-2-76
E_orig	|	1.40620338916779
PLIF_pronum	|	1
PLIF_raw	|	[2,1790,117,4,1]
FP:PLIF	|	20
PLIF_ligidx	|	2

# MOE 2020.09 (io_trps.svl 2020.11)

@<TRIPOS>MOLECULE
2XQJ
49 50 1 0 0 
SMALL
USER_CHARGES


@<TRIPOS>ATOM
  1 C      -18.6270   -38.7870   -23.9250 C.ar  1 <1>  -0.1710 
  2 O      -17.5190   -38.1960   -24.2120 O.3   1 <1>  -0.8290 
  3 C      -18.7050   -40.1870   -23.6990 C.ar  1 <1>  -0.1440 
  4 C      -17.5000   -41.1070   -23.7500 C.3   1 <1>   0.4870 
  5 H1     -17.7370   -41.9660   -23.1370 H     1 <1>   0.0800 
  6 H2     -17.4650   -41.5200   -24.7500 H     1 <1>   0.0800 
  7 N      -16.1540   -40.5670   -23.3700 N.4   1 <1>  -0.9590 
  8 H      -15.9290   -39.8940   -24.0910 H     1 <1>   0.4500 
  9 C      -15.1040   -41.6400   -23.3850 C.3   1 <1>   0.3430 
 10 H1     -15.0370   -42.1170   -24.3530 H     1 <1>   0.0800 
 11 H2     -15.3750   -42.4460   -22.7140 H     1 <1>   0.0800 
 12 C      -13.7090   -41.1570   -22.9830 C.3   1 <1>  -0.1600 
 13 H1     -13.3320   -40.5000   -23.7590 H     1 <1>   0.0800 
 14 H2     -13.0530   -42.0210   -22.8970 H     1 <1>   0.0800 
 15 C      -13.7170   -40.3800   -21.6680 C.3   1 <1>  -0.1600 
 16 H1     -14.0140   -41.0660   -20.8820 H     1 <1>   0.0800 
 17 H2     -12.7220   -39.9880   -21.4570 H     1 <1>   0.0800 
 18 C      -14.7370   -39.2400   -21.7340 C.3   1 <1>  -0.1600 
 19 H1     -14.7760   -38.7310   -20.7730 H     1 <1>   0.0800 
 20 H2     -14.4330   -38.5200   -22.4950 H     1 <1>   0.0800 
 21 C      -16.1280   -39.7800   -22.0850 C.3   1 <1>   0.3430 
 22 H1     -16.4630   -40.3830   -21.2550 H     1 <1>   0.0800 
 23 H2     -16.8220   -38.9510   -22.1060 H     1 <1>   0.0800 
 24 C      -19.9350   -40.7860   -23.4680 C.ar  1 <1>  -0.1500 
 25 H      -19.9830   -41.8360   -23.3340 H     1 <1>   0.1500 
 26 C      -21.1150   -40.0450   -23.4260 C.ar  1 <1>  -0.1440 
 27 C      -22.4390   -40.7620   -23.2300 C.3   1 <1>   0.4860 
 28 H1     -23.2080   -40.1540   -23.6870 H     1 <1>   0.0800 
 29 H2     -22.4130   -41.6340   -23.8710 H     1 <1>   0.0800 
 30 N      -22.8430   -41.1690   -21.8180 N.4   1 <1>  -0.9590 
 31 H      -23.1830   -42.1170   -21.9190 H     1 <1>   0.4500 
 32 C      -21.7310   -41.2670   -20.8060 C.3   1 <1>   0.3430 
 33 H1     -20.8660   -40.6850   -21.0940 H     1 <1>   0.0800 
 34 H2     -22.0290   -40.8140   -19.8710 H     1 <1>   0.0800 
 35 C      -21.2800   -42.6960   -20.4960 C.3   1 <1>  -0.2400 
 36 H1     -20.5290   -42.6910   -19.7080 H     1 <1>   0.0800 
 37 H2     -22.1240   -43.2930   -20.1530 H     1 <1>   0.0800 
 38 H3     -20.8540   -43.1690   -21.3810 H     1 <1>   0.0800 
 39 C      -24.0330   -40.4140   -21.3020 C.3   1 <1>   0.3430 
 40 H1     -24.3500   -40.8130   -20.3470 H     1 <1>   0.0800 
 41 H2     -24.8890   -40.5830   -21.9390 H     1 <1>   0.0800 
 42 C      -23.8620   -38.9030   -21.1370 C.3   1 <1>  -0.2400 
 43 H1     -23.6400   -38.4250   -22.0890 H     1 <1>   0.0800 
 44 H2     -23.0620   -38.6880   -20.4340 H     1 <1>   0.0800 
 45 H3     -24.7830   -38.4650   -20.7550 H     1 <1>   0.0800 
 46 C      -21.0420   -38.6640   -23.6060 C.ar  1 <1>  -0.1500 
 47 H      -21.9240   -38.0780   -23.5780 H     1 <1>   0.1500 
 48 C      -19.8260   -38.0440   -23.8460 C.ar  1 <1>  -0.1500 
 49 H      -19.7900   -36.9950   -23.9910 H     1 <1>   0.1500 
@<TRIPOS>BOND
  1   1   2  1   
  2   1   3  ar  
  3   1  48  ar  
  4   3   4  1   
  5   3  24  ar  
  6   4   5  1   
  7   4   6  1   
  8   4   7  1   
  9   7   8  1   
 10   7   9  1   
 11   7  21  1   
 12   9  10  1   
 13   9  11  1   
 14   9  12  1   
 15  12  13  1   
 16  12  14  1   
 17  12  15  1   
 18  15  16  1   
 19  15  17  1   
 20  15  18  1   
 21  18  19  1   
 22  18  20  1   
 23  18  21  1   
 24  21  22  1   
 25  21  23  1   
 26  24  25  1   
 27  24  26  ar  
 28  26  27  1   
 29  26  46  ar  
 30  27  28  1   
 31  27  29  1   
 32  27  30  1   
 33  30  31  1   
 34  30  32  1   
 35  30  39  1   
 36  32  33  1   
 37  32  34  1   
 38  32  35  1   
 39  35  36  1   
 40  35  37  1   
 41  35  38  1   
 42  39  40  1   
 43  39  41  1   
 44  39  42  1   
 45  42  43  1   
 46  42  44  1   
 47  42  45  1   
 48  46  47  1   
 49  46  48  ar  
 50  48  49  1   
@<TRIPOS>SUBSTRUCTURE
  1 ****   3 GROUP 4 **** **** 0
@<TRIPOS>PROPERTY_DATA
rseq	|	1
mseq	|	17
S	|	-6.7460675239563
rmsd_refine	|	1.18099105358124
E_conf	|	-137.435180664062
E_place	|	-61.6115226745605
E_score1	|	-10.0996904373169
E_refine	|	-34.7267875671387
E_score2	|	-6.7460675239563
Field_1	|	16
Field_2	|	cc-2-76
E_orig	|	2
PLIF_pronum	|	1
PLIF_raw	|	[[27,27,27,27,27],[1242,1245,1248,1246,1243],[82,82,82,82,82],[10,10,10,10,10],[0.5,0.5,0.5,0.5,0.5]]
FP:PLIF	|	2
PLIF_ligidx	|	[[27,27,27,27,27]]

# MOE 2020.09 (io_trps.svl 2020.11)

@<TRIPOS>MOLECULE
2XQJ
47 49 1 0 0 
SMALL
USER_CHARGES


@<TRIPOS>ATOM
  1 C      -18.5600   -38.2160   -23.8890 C.ar  1 <1>  -0.1710 
  2 O      -17.3650   -37.9930   -24.3070 O.3   1 <1>  -0.8290 
  3 C      -18.9510   -39.4620   -23.3350 C.ar  1 <1>  -0.1440 
  4 C      -17.9960   -40.6480   -23.2690 C.3   1 <1>   0.4870 
  5 H1     -18.1770   -41.2390   -24.1560 H     1 <1>   0.0800 
  6 H2     -18.3380   -41.2920   -22.4710 H     1 <1>   0.0800 
  7 N      -16.5180   -40.3750   -23.1270 N.4   1 <1>  -0.9590 
  8 H      -16.2880   -39.7980   -23.9280 H     1 <1>   0.4500 
  9 C      -15.6760   -41.6250   -23.1990 C.3   1 <1>   0.3430 
 10 H1     -15.9960   -42.3350   -22.4480 H     1 <1>   0.0800 
 11 H2     -15.8260   -42.1490   -24.1330 H     1 <1>   0.0800 
 12 C      -14.1670   -41.4010   -23.0030 C.3   1 <1>  -0.1600 
 13 H1     -13.6750   -42.3690   -22.9080 H     1 <1>   0.0800 
 14 H2     -13.7550   -40.9060   -23.8760 H     1 <1>   0.0800 
 15 C      -13.8570   -40.5440   -21.7730 C.3   1 <1>  -0.1600 
 16 H1     -14.1430   -41.1100   -20.8930 H     1 <1>   0.0800 
 17 H2     -12.7890   -40.3230   -21.7290 H     1 <1>   0.0800 
 18 C      -14.6660   -39.2410   -21.8020 C.3   1 <1>  -0.1600 
 19 H1     -14.3470   -38.6330   -22.6500 H     1 <1>   0.0800 
 20 H2     -14.4860   -38.6800   -20.8860 H     1 <1>   0.0800 
 21 C      -16.1670   -39.5270   -21.9350 C.3   1 <1>   0.3430 
 22 H1     -16.6980   -38.5850   -21.9520 H     1 <1>   0.0800 
 23 H2     -16.4930   -39.9990   -21.0200 H     1 <1>   0.0800 
 24 C      -20.2560   -39.6420   -22.8860 C.ar  1 <1>  -0.1500 
 25 H      -20.5310   -40.5830   -22.4850 H     1 <1>   0.1500 
 26 C      -21.2090   -38.6190   -22.9690 C.ar  1 <1>  -0.1440 
 27 C      -22.6510   -38.7740   -22.5150 C.3   1 <1>   0.4860 
 28 H1     -23.2780   -38.8090   -23.3970 H     1 <1>   0.0800 
 29 H2     -22.9320   -37.8370   -22.0520 H     1 <1>   0.0800 
 30 N      -22.9580   -39.9230   -21.5910 N.4   1 <1>  -0.9590 
 31 H      -22.1350   -40.1010   -21.0330 H     1 <1>   0.4500 
 32 C      -23.3030   -41.1940   -22.2980 C.3   1 <1>   0.3430 
 33 H1     -23.7900   -40.9940   -23.2430 H     1 <1>   0.0800 
 34 H2     -22.4420   -41.7990   -22.5500 H     1 <1>   0.0800 
 35 C      -24.2760   -41.9810   -21.4210 C.3   1 <1>  -0.1600 
 36 H1     -25.0200   -42.4950   -22.0300 H     1 <1>   0.0800 
 37 H2     -23.7150   -42.7040   -20.8280 H     1 <1>   0.0800 
 38 C      -24.9180   -40.9460   -20.4910 C.3   1 <1>  -0.1600 
 39 H1     -24.8950   -41.2960   -19.4580 H     1 <1>   0.0800 
 40 H2     -25.9480   -40.7550   -20.7930 H     1 <1>   0.0800 
 41 C      -24.0900   -39.6640   -20.6460 C.3   1 <1>   0.3430 
 42 H1     -23.7540   -39.3190   -19.6770 H     1 <1>   0.0800 
 43 H2     -24.7410   -38.8770   -21.0050 H     1 <1>   0.0800 
 44 C      -20.8250   -37.3990   -23.5200 C.ar  1 <1>  -0.1500 
 45 H      -21.5270   -36.6090   -23.5990 H     1 <1>   0.1500 
 46 C      -19.5350   -37.2000   -23.9750 C.ar  1 <1>  -0.1500 
 47 H      -19.2740   -36.2680   -24.4020 H     1 <1>   0.1500 
@<TRIPOS>BOND
  1   1   2  1   
  2   1   3  ar  
  3   1  46  ar  
  4   3   4  1   
  5   3  24  ar  
  6   4   5  1   
  7   4   6  1   
  8   4   7  1   
  9   7   8  1   
 10   7   9  1   
 11   7  21  1   
 12   9  10  1   
 13   9  11  1   
 14   9  12  1   
 15  12  13  1   
 16  12  14  1   
 17  12  15  1   
 18  15  16  1   
 19  15  17  1   
 20  15  18  1   
 21  18  19  1   
 22  18  20  1   
 23  18  21  1   
 24  21  22  1   
 25  21  23  1   
 26  24  25  1   
 27  24  26  ar  
 28  26  27  1   
 29  26  44  ar  
 30  27  28  1   
 31  27  29  1   
 32  27  30  1   
 33  30  31  1   
 34  30  32  1   
 35  30  41  1   
 36  32  33  1   
 37  32  34  1   
 38  32  35  1   
 39  35  36  1   
 40  35  37  1   
 41  35  38  1   
 42  38  39  1   
 43  38  40  1   
 44  38  41  1   
 45  41  42  1   
 46  41  43  1   
 47  44  45  1   
 48  44  46  ar  
 49  46  47  1   
@<TRIPOS>SUBSTRUCTURE
  1 ****   3 GROUP 4 **** **** 0
@<TRIPOS>PROPERTY_DATA
rseq	|	1
mseq	|	18
S	|	-7.1196346282959
rmsd_refine	|	2.09780073165894
E_conf	|	-105.185768127441
E_place	|	-51.4924430847168
E_score1	|	-10.3149089813232
E_refine	|	-38.2120895385742
E_score2	|	-7.1196346282959
Field_1	|	17
Field_2	|	cc-2-28
E_orig	|	1.80836546421051
PLIF_pronum	|	1
PLIF_raw	|	[[2,27,27,27,27,27,1,46,44,26,24,3],[1790,1242,1245,1248,1246,1243,6787,6787,6787,6787,6787,6787],[117,82,82,82,82,82,438,438,438,438,438,438],[4,10,10,10,10,10,10,10,10,10,10,10],[1.3,0.6,0.6,0.6,0.6,0.6,1,1,1,1,1,1]]
FP:PLIF	|	2 20 14 28
PLIF_ligidx	|	[[27,27,27,27,27],2,[1,46,44,26,24,3],[1,46,44,26,24,3]]

# MOE 2020.09 (io_trps.svl 2020.11)

@<TRIPOS>MOLECULE
2XQJ
47 49 1 0 0 
SMALL
USER_CHARGES


@<TRIPOS>ATOM
  1 C      -18.8050   -38.6120   -24.1060 C.ar  1 <1>  -0.1710 
  2 O      -19.4890   -37.5420   -24.2760 O.3   1 <1>  -0.8290 
  3 C      -19.3830   -39.9050   -24.0330 C.ar  1 <1>  -0.1440 
  4 C      -20.8430   -40.0760   -24.4000 C.3   1 <1>   0.4870 
  5 H1     -21.4420   -39.7350   -23.5660 H     1 <1>   0.0800 
  6 H2     -21.0680   -41.1310   -24.4830 H     1 <1>   0.0800 
  7 N      -21.1760   -39.3340   -25.6530 N.4   1 <1>  -0.9590 
  8 H      -20.3130   -38.8330   -25.8320 H     1 <1>   0.4500 
  9 C      -22.1490   -38.2260   -25.4840 C.3   1 <1>   0.3430 
 10 H1     -23.1570   -38.5960   -25.3640 H     1 <1>   0.0800 
 11 H2     -21.9560   -37.6580   -24.5830 H     1 <1>   0.0800 
 12 C      -22.1020   -37.2720   -26.6770 C.3   1 <1>  -0.1600 
 13 H1     -21.1110   -36.8250   -26.6990 H     1 <1>   0.0800 
 14 H2     -22.8170   -36.4700   -26.5290 H     1 <1>   0.0800 
 15 C      -22.3710   -38.0030   -28.0040 C.3   1 <1>  -0.1600 
 16 H1     -23.4130   -38.3120   -28.0340 H     1 <1>   0.0800 
 17 H2     -22.1960   -37.3170   -28.8330 H     1 <1>   0.0800 
 18 C      -21.4730   -39.2480   -28.1580 C.3   1 <1>  -0.1600 
 19 H1     -20.4590   -38.9130   -28.3740 H     1 <1>   0.0800 
 20 H2     -21.8170   -39.8480   -29.0010 H     1 <1>   0.0800 
 21 C      -21.4250   -40.1280   -26.8960 C.3   1 <1>   0.3430 
 22 H1     -20.6730   -40.8930   -27.0390 H     1 <1>   0.0800 
 23 H2     -22.3530   -40.6790   -26.8260 H     1 <1>   0.0800 
 24 C      -18.5980   -41.0030   -23.6990 C.ar  1 <1>  -0.1500 
 25 H      -19.0480   -41.9580   -23.5990 H     1 <1>   0.1500 
 26 C      -17.2190   -40.8690   -23.5150 C.ar  1 <1>  -0.1440 
 27 C      -16.3610   -42.0450   -23.0830 C.3   1 <1>   0.4860 
 28 H1     -16.0610   -42.5830   -23.9720 H     1 <1>   0.0800 
 29 H2     -17.0170   -42.7420   -22.5790 H     1 <1>   0.0800 
 30 N      -15.1580   -41.7320   -22.2040 N.4   1 <1>  -0.9590 
 31 H      -14.9780   -42.5690   -21.6670 H     1 <1>   0.4500 
 32 C      -15.3370   -40.6040   -21.2190 C.3   1 <1>   0.3430 
 33 H1     -16.3000   -40.1170   -21.2950 H     1 <1>   0.0800 
 34 H2     -15.3170   -40.9750   -20.2070 H     1 <1>   0.0800 
 35 C      -14.2250   -39.5630   -21.4240 C.3   1 <1>  -0.1600 
 36 H1     -14.6220   -38.7090   -21.9710 H     1 <1>   0.0800 
 37 H2     -13.7970   -39.1880   -20.4980 H     1 <1>   0.0800 
 38 C      -13.1710   -40.2710   -22.2670 C.3   1 <1>  -0.1600 
 39 H1     -12.4040   -40.6750   -21.6080 H     1 <1>   0.0800 
 40 H2     -12.7250   -39.5890   -22.9900 H     1 <1>   0.0800 
 41 C      -13.8930   -41.4360   -22.9520 C.3   1 <1>   0.3430 
 42 H1     -13.2330   -42.2900   -23.0300 H     1 <1>   0.0800 
 43 H2     -14.0990   -41.1550   -23.9750 H     1 <1>   0.0800 
 44 C      -16.6420   -39.6230   -23.7440 C.ar  1 <1>  -0.1500 
 45 H      -15.5960   -39.5090   -23.7100 H     1 <1>   0.1500 
 46 C      -17.4110   -38.5180   -24.0200 C.ar  1 <1>  -0.1500 
 47 H      -16.9500   -37.5830   -24.1920 H     1 <1>   0.1500 
@<TRIPOS>BOND
  1   1   2  1   
  2   1   3  ar  
  3   1  46  ar  
  4   3   4  1   
  5   3  24  ar  
  6   4   5  1   
  7   4   6  1   
  8   4   7  1   
  9   7   8  1   
 10   7   9  1   
 11   7  21  1   
 12   9  10  1   
 13   9  11  1   
 14   9  12  1   
 15  12  13  1   
 16  12  14  1   
 17  12  15  1   
 18  15  16  1   
 19  15  17  1   
 20  15  18  1   
 21  18  19  1   
 22  18  20  1   
 23  18  21  1   
 24  21  22  1   
 25  21  23  1   
 26  24  25  1   
 27  24  26  ar  
 28  26  27  1   
 29  26  44  ar  
 30  27  28  1   
 31  27  29  1   
 32  27  30  1   
 33  30  31  1   
 34  30  32  1   
 35  30  41  1   
 36  32  33  1   
 37  32  34  1   
 38  32  35  1   
 39  35  36  1   
 40  35  37  1   
 41  35  38  1   
 42  38  39  1   
 43  38  40  1   
 44  38  41  1   
 45  41  42  1   
 46  41  43  1   
 47  44  45  1   
 48  44  46  ar  
 49  46  47  1   
@<TRIPOS>SUBSTRUCTURE
  1 ****   3 GROUP 4 **** **** 0
@<TRIPOS>PROPERTY_DATA
rseq	|	1
mseq	|	18
S	|	-7.05497360229492
rmsd_refine	|	2.36048698425293
E_conf	|	-101.390579223633
E_place	|	-68.493522644043
E_score1	|	-10.6578960418701
E_refine	|	-32.7194137573242
E_score2	|	-7.05497360229492
Field_1	|	17
Field_2	|	cc-2-28
E_orig	|	2.02463531494141
PLIF_pronum	|	1
PLIF_raw	|	[[],[],[],[],[]]
FP:PLIF	|	
PLIF_ligidx	|	[]

# MOE 2020.09 (io_trps.svl 2020.11)

@<TRIPOS>MOLECULE
2XQJ
47 49 1 0 0 
SMALL
USER_CHARGES


@<TRIPOS>ATOM
  1 C      -18.4090   -38.3610   -24.0770 C.ar  1 <1>  -0.1710 
  2 O      -17.1920   -37.9820   -24.2300 O.3   1 <1>  -0.8290 
  3 C      -18.7680   -39.7130   -23.8260 C.ar  1 <1>  -0.1440 
  4 C      -17.7470   -40.8230   -23.6000 C.3   1 <1>   0.4870 
  5 H1     -17.7820   -41.4520   -24.4800 H     1 <1>   0.0800 
  6 H2     -18.1410   -41.4650   -22.8240 H     1 <1>   0.0800 
  7 N      -16.3210   -40.4540   -23.2940 N.4   1 <1>  -0.9590 
  8 H      -16.0550   -39.8170   -24.0350 H     1 <1>   0.4500 
  9 C      -15.3890   -41.6350   -23.3400 C.3   1 <1>   0.3430 
 10 H1     -15.7090   -42.3970   -22.6420 H     1 <1>   0.0800 
 11 H2     -15.4220   -42.1290   -24.3020 H     1 <1>   0.0800 
 12 C      -13.9260   -41.2990   -23.0170 C.3   1 <1>  -0.1600 
 13 H1     -13.3590   -42.2250   -22.9340 H     1 <1>   0.0800 
 14 H2     -13.5090   -40.7150   -23.8300 H     1 <1>   0.0800 
 15 C      -13.7840   -40.4910   -21.7240 C.3   1 <1>  -0.1600 
 16 H1     -14.0930   -41.1250   -20.9000 H     1 <1>   0.0800 
 17 H2     -12.7450   -40.1900   -21.5820 H     1 <1>   0.0800 
 18 C      -14.6930   -39.2570   -21.7570 C.3   1 <1>  -0.1600 
 19 H1     -14.3610   -38.5800   -22.5450 H     1 <1>   0.0800 
 20 H2     -14.6320   -38.7340   -20.8030 H     1 <1>   0.0800 
 21 C      -16.1480   -39.6580   -22.0270 C.3   1 <1>   0.3430 
 22 H1     -16.7570   -38.7640   -22.0320 H     1 <1>   0.0800 
 23 H2     -16.5010   -40.2130   -21.1710 H     1 <1>   0.0800 
 24 C      -20.1080   -40.0800   -23.8330 C.ar  1 <1>  -0.1500 
 25 H      -20.3660   -41.0980   -23.6980 H     1 <1>   0.1500 
 26 C      -21.1220   -39.1430   -24.0410 C.ar  1 <1>  -0.1440 
 27 C      -22.5750   -39.5500   -24.1570 C.3   1 <1>   0.4860 
 28 H1     -22.6270   -40.3680   -24.8640 H     1 <1>   0.0800 
 29 H2     -23.0820   -38.7470   -24.6760 H     1 <1>   0.0800 
 30 N      -23.3140   -39.8950   -22.8920 N.4   1 <1>  -0.9590 
 31 H      -24.2910   -39.9520   -23.1490 H     1 <1>   0.4500 
 32 C      -23.2340   -38.8890   -21.7930 C.3   1 <1>   0.3430 
 33 H1     -22.2790   -38.3810   -21.7970 H     1 <1>   0.0800 
 34 H2     -23.9730   -38.1020   -21.8680 H     1 <1>   0.0800 
 35 C      -23.3750   -39.6440   -20.4710 C.3   1 <1>  -0.1600 
 36 H1     -22.8210   -39.1700   -19.6620 H     1 <1>   0.0800 
 37 H2     -24.4340   -39.6980   -20.2150 H     1 <1>   0.0800 
 38 C      -22.8560   -41.0520   -20.7680 C.3   1 <1>  -0.1600 
 39 H1     -23.4360   -41.8110   -20.2400 H     1 <1>   0.0800 
 40 H2     -21.8040   -41.1200   -20.4890 H     1 <1>   0.0800 
 41 C      -22.9760   -41.2210   -22.2850 C.3   1 <1>   0.3430 
 42 H1     -23.7300   -41.9660   -22.5050 H     1 <1>   0.0800 
 43 H2     -22.0570   -41.6410   -22.6690 H     1 <1>   0.0800 
 44 C      -20.7760   -37.8030   -24.1970 C.ar  1 <1>  -0.1500 
 45 H      -21.5310   -37.0710   -24.3290 H     1 <1>   0.1500 
 46 C      -19.4500   -37.4160   -24.2090 C.ar  1 <1>  -0.1500 
 47 H      -19.2080   -36.3950   -24.3490 H     1 <1>   0.1500 
@<TRIPOS>BOND
  1   1   2  1   
  2   1   3  ar  
  3   1  46  ar  
  4   3   4  1   
  5   3  24  ar  
  6   4   5  1   
  7   4   6  1   
  8   4   7  1   
  9   7   8  1   
 10   7   9  1   
 11   7  21  1   
 12   9  10  1   
 13   9  11  1   
 14   9  12  1   
 15  12  13  1   
 16  12  14  1   
 17  12  15  1   
 18  15  16  1   
 19  15  17  1   
 20  15  18  1   
 21  18  19  1   
 22  18  20  1   
 23  18  21  1   
 24  21  22  1   
 25  21  23  1   
 26  24  25  1   
 27  24  26  ar  
 28  26  27  1   
 29  26  44  ar  
 30  27  28  1   
 31  27  29  1   
 32  27  30  1   
 33  30  31  1   
 34  30  32  1   
 35  30  41  1   
 36  32  33  1   
 37  32  34  1   
 38  32  35  1   
 39  35  36  1   
 40  35  37  1   
 41  35  38  1   
 42  38  39  1   
 43  38  40  1   
 44  38  41  1   
 45  41  42  1   
 46  41  43  1   
 47  44  45  1   
 48  44  46  ar  
 49  46  47  1   
@<TRIPOS>SUBSTRUCTURE
  1 ****   3 GROUP 4 **** **** 0
@<TRIPOS>PROPERTY_DATA
rseq	|	1
mseq	|	18
S	|	-6.82648849487305
rmsd_refine	|	1.54772806167603
E_conf	|	-105.659683227539
E_place	|	-74.9174270629883
E_score1	|	-10.5107765197754
E_refine	|	-35.1648216247559
E_score2	|	-6.82648849487305
Field_1	|	17
Field_2	|	cc-2-28
E_orig	|	1.20000004768372
PLIF_pronum	|	1
PLIF_raw	|	[[2,1,46,44,26,24,3],[1790,6787,6787,6787,6787,6787,6787],[117,438,438,438,438,438,438],[4,10,10,10,10,10,10],[1.2,1.2,1.2,1.2,1.2,1.2,1.2]]
FP:PLIF	|	20 14 28
PLIF_ligidx	|	[2,[1,46,44,26,24,3],[1,46,44,26,24,3]]

# MOE 2020.09 (io_trps.svl 2020.11)

@<TRIPOS>MOLECULE
2XQJ
47 49 1 0 0 
SMALL
USER_CHARGES


@<TRIPOS>ATOM
  1 C      -18.4590   -38.3470   -23.8780 C.ar  1 <1>  -0.1710 
  2 O      -17.2950   -37.9980   -24.2940 O.3   1 <1>  -0.8290 
  3 C      -18.7260   -39.6510   -23.3900 C.ar  1 <1>  -0.1440 
  4 C      -17.6770   -40.7510   -23.3920 C.3   1 <1>   0.4870 
  5 H1     -17.7800   -41.2770   -24.3310 H     1 <1>   0.0800 
  6 H2     -17.9830   -41.4870   -22.6620 H     1 <1>   0.0800 
  7 N      -16.2450   -40.3650   -23.1730 N.4   1 <1>  -0.9590 
  8 H      -16.0240   -39.7460   -23.9430 H     1 <1>   0.4500 
  9 C      -15.3160   -41.5470   -23.2430 C.3   1 <1>   0.3430 
 10 H1     -15.6050   -42.2980   -22.5200 H     1 <1>   0.0800 
 11 H2     -15.3940   -42.0560   -24.1950 H     1 <1>   0.0800 
 12 C      -13.8420   -41.2090   -22.9930 C.3   1 <1>  -0.1600 
 13 H1     -13.2730   -42.1350   -22.9220 H     1 <1>   0.0800 
 14 H2     -13.4640   -40.6360   -23.8300 H     1 <1>   0.0800 
 15 C      -13.6440   -40.3840   -21.7200 C.3   1 <1>  -0.1600 
 16 H1     -13.9230   -41.0090   -20.8800 H     1 <1>   0.0800 
 17 H2     -12.5990   -40.0880   -21.6240 H     1 <1>   0.0800 
 18 C      -14.5480   -39.1460   -21.7300 C.3   1 <1>  -0.1600 
 19 H1     -14.2440   -38.4790   -22.5380 H     1 <1>   0.0800 
 20 H2     -14.4450   -38.6120   -20.7850 H     1 <1>   0.0800 
 21 C      -16.0160   -39.5400   -21.9360 C.3   1 <1>   0.3430 
 22 H1     -16.6170   -38.6400   -21.9450 H     1 <1>   0.0800 
 23 H2     -16.3430   -40.0700   -21.0530 H     1 <1>   0.0800 
 24 C      -19.9970   -39.9770   -22.9390 C.ar  1 <1>  -0.1500 
 25 H      -20.1700   -40.9560   -22.5750 H     1 <1>   0.1500 
 26 C      -21.0470   -39.0540   -22.9740 C.ar  1 <1>  -0.1440 
 27 C      -22.4470   -39.4090   -22.5070 C.3   1 <1>   0.4860 
 28 H1     -23.1550   -38.9160   -23.1600 H     1 <1>   0.0800 
 29 H2     -22.5990   -38.9220   -21.5530 H     1 <1>   0.0800 
 30 N      -22.7440   -40.8800   -22.4060 N.4   1 <1>  -0.9590 
 31 H      -21.9540   -41.3210   -21.9580 H     1 <1>   0.4500 
 32 C      -22.9300   -41.5740   -23.7140 C.3   1 <1>   0.3430 
 33 H1     -23.4320   -40.9330   -24.4280 H     1 <1>   0.0800 
 34 H2     -22.0010   -41.8530   -24.1940 H     1 <1>   0.0800 
 35 C      -23.8080   -42.8020   -23.4740 C.3   1 <1>  -0.1600 
 36 H1     -24.5210   -42.9400   -24.2870 H     1 <1>   0.0800 
 37 H2     -23.1740   -43.6850   -23.3850 H     1 <1>   0.0800 
 38 C      -24.5160   -42.5440   -22.1370 C.3   1 <1>  -0.1600 
 39 H1     -24.3110   -43.3560   -21.4390 H     1 <1>   0.0800 
 40 H2     -25.5870   -42.4370   -22.2850 H     1 <1>   0.0800 
 41 C      -23.9420   -41.2320   -21.5970 C.3   1 <1>   0.3430 
 42 H1     -24.7060   -40.4710   -21.6730 H     1 <1>   0.0800 
 43 H2     -23.7340   -41.3170   -20.5380 H     1 <1>   0.0800 
 44 C      -20.7880   -37.7710   -23.4540 C.ar  1 <1>  -0.1500 
 45 H      -21.5660   -37.0500   -23.4850 H     1 <1>   0.1500 
 46 C      -19.5250   -37.4210   -23.8960 C.ar  1 <1>  -0.1500 
 47 H      -19.3520   -36.4420   -24.2610 H     1 <1>   0.1500 
@<TRIPOS>BOND
  1   1   2  1   
  2   1   3  ar  
  3   1  46  ar  
  4   3   4  1   
  5   3  24  ar  
  6   4   5  1   
  7   4   6  1   
  8   4   7  1   
  9   7   8  1   
 10   7   9  1   
 11   7  21  1   
 12   9  10  1   
 13   9  11  1   
 14   9  12  1   
 15  12  13  1   
 16  12  14  1   
 17  12  15  1   
 18  15  16  1   
 19  15  17  1   
 20  15  18  1   
 21  18  19  1   
 22  18  20  1   
 23  18  21  1   
 24  21  22  1   
 25  21  23  1   
 26  24  25  1   
 27  24  26  ar  
 28  26  27  1   
 29  26  44  ar  
 30  27  28  1   
 31  27  29  1   
 32  27  30  1   
 33  30  31  1   
 34  30  32  1   
 35  30  41  1   
 36  32  33  1   
 37  32  34  1   
 38  32  35  1   
 39  35  36  1   
 40  35  37  1   
 41  35  38  1   
 42  38  39  1   
 43  38  40  1   
 44  38  41  1   
 45  41  42  1   
 46  41  43  1   
 47  44  45  1   
 48  44  46  ar  
 49  46  47  1   
@<TRIPOS>SUBSTRUCTURE
  1 ****   3 GROUP 4 **** **** 0
@<TRIPOS>PROPERTY_DATA
rseq	|	1
mseq	|	18
S	|	-6.8106164932251
rmsd_refine	|	1.2456591129303
E_conf	|	-105.888061523438
E_place	|	-63.7031898498535
E_score1	|	-10.4418153762817
E_refine	|	-34.6392440795898
E_score2	|	-6.8106164932251
Field_1	|	17
Field_2	|	cc-2-28
E_orig	|	1.40836548805237
PLIF_pronum	|	1
PLIF_raw	|	[[2,27,27,27,27,27,27,27,27,27,27,27,1,46,44,26,24,3],[1790,1242,1245,1248,1246,1243,1245,1249,1253,1255,1251,1248,6787,6787,6787,6787,6787,6787],[117,82,82,82,82,82,82,82,82,82,82,82,438,438,438,438,438,438],[4,10,10,10,10,10,10,10,10,10,10,10,10,10,10,10,10,10],[1.3,0.6,0.6,0.6,0.6,0.6,0.6,0.6,0.6,0.6,0.6,0.6,0.7,0.7,0.7,0.7,0.7,0.7]]
FP:PLIF	|	2 20 14
PLIF_ligidx	|	[[27,27,27,27,27,27,27,27,27,27,27],2,[1,46,44,26,24,3]]

# MOE 2020.09 (io_trps.svl 2020.11)

@<TRIPOS>MOLECULE
2XQJ
47 49 1 0 0 
SMALL
USER_CHARGES


@<TRIPOS>ATOM
  1 C      -18.1090   -38.5890   -23.8430 C.ar  1 <1>  -0.1710 
  2 O      -16.9040   -38.1770   -24.0020 O.3   1 <1>  -0.8290 
  3 C      -18.4440   -39.9640   -23.6950 C.ar  1 <1>  -0.1440 
  4 C      -17.4390   -41.0560   -23.3840 C.3   1 <1>   0.4870 
  5 H1     -17.4390   -41.7280   -24.2310 H     1 <1>   0.0800 
  6 H2     -17.8470   -41.6620   -22.5870 H     1 <1>   0.0800 
  7 N      -16.0500   -40.6310   -23.0700 N.4   1 <1>  -0.9590 
  8 H      -15.8140   -39.9890   -23.8170 H     1 <1>   0.4500 
  9 C      -15.0580   -41.7380   -23.1070 C.3   1 <1>   0.3430 
 10 H1     -15.2460   -42.4560   -22.3180 H     1 <1>   0.0800 
 11 H2     -15.1320   -42.3150   -24.0190 H     1 <1>   0.0800 
 12 C      -13.6260   -41.2320   -22.9650 C.3   1 <1>  -0.1600 
 13 H1     -12.9620   -42.0880   -22.8840 H     1 <1>   0.0800 
 14 H2     -13.3830   -40.6740   -23.8610 H     1 <1>   0.0800 
 15 C      -13.4350   -40.3010   -21.7630 C.3   1 <1>  -0.1600 
 16 H1     -13.5460   -40.8990   -20.8730 H     1 <1>   0.0800 
 17 H2     -12.4400   -39.8630   -21.7870 H     1 <1>   0.0800 
 18 C      -14.4970   -39.1990   -21.7070 C.3   1 <1>  -0.1600 
 19 H1     -14.3440   -38.5030   -22.5340 H     1 <1>   0.0800 
 20 H2     -14.4100   -38.6510   -20.7690 H     1 <1>   0.0800 
 21 C      -15.8990   -39.8050   -21.8230 C.3   1 <1>   0.3430 
 22 H1     -16.0880   -40.3930   -20.9360 H     1 <1>   0.0800 
 23 H2     -16.6260   -39.0050   -21.7780 H     1 <1>   0.0800 
 24 C      -19.7480   -40.3690   -23.9180 C.ar  1 <1>  -0.1500 
 25 H      -19.9820   -41.4030   -23.9390 H     1 <1>   0.1500 
 26 C      -20.7400   -39.4370   -24.1990 C.ar  1 <1>  -0.1440 
 27 C      -21.9440   -39.8500   -24.9800 C.3   1 <1>   0.4860 
 28 H1     -22.8300   -39.3540   -24.6050 H     1 <1>   0.0800 
 29 H2     -22.1170   -40.9100   -24.8500 H     1 <1>   0.0800 
 30 N      -21.6170   -39.4840   -26.3840 N.4   1 <1>  -0.9590 
 31 H      -20.6170   -39.3370   -26.3540 H     1 <1>   0.4500 
 32 C      -22.1380   -38.1740   -26.8580 C.3   1 <1>   0.3430 
 33 H1     -23.0830   -37.9200   -26.4040 H     1 <1>   0.0800 
 34 H2     -21.4750   -37.3560   -26.6100 H     1 <1>   0.0800 
 35 C      -22.3040   -38.2640   -28.3680 C.3   1 <1>  -0.1600 
 36 H1     -23.3660   -38.2690   -28.5870 H     1 <1>   0.0800 
 37 H2     -21.8170   -37.4230   -28.8600 H     1 <1>   0.0800 
 38 C      -21.6800   -39.6130   -28.7520 C.3   1 <1>  -0.1600 
 39 H1     -20.6240   -39.4430   -28.9470 H     1 <1>   0.0800 
 40 H2     -22.1430   -40.0790   -29.6190 H     1 <1>   0.0800 
 41 C      -21.7810   -40.4540   -27.4880 C.3   1 <1>   0.3430 
 42 H1     -21.0430   -41.2450   -27.4900 H     1 <1>   0.0800 
 43 H2     -22.7410   -40.9510   -27.4660 H     1 <1>   0.0800 
 44 C      -20.4640   -38.0790   -24.0770 C.ar  1 <1>  -0.1500 
 45 H      -21.2320   -37.3600   -24.2100 H     1 <1>   0.1500 
 46 C      -19.1660   -37.6580   -23.8980 C.ar  1 <1>  -0.1500 
 47 H      -18.9570   -36.6240   -23.8750 H     1 <1>   0.1500 
@<TRIPOS>BOND
  1   1   2  1   
  2   1   3  ar  
  3   1  46  ar  
  4   3   4  1   
  5   3  24  ar  
  6   4   5  1   
  7   4   6  1   
  8   4   7  1   
  9   7   8  1   
 10   7   9  1   
 11   7  21  1   
 12   9  10  1   
 13   9  11  1   
 14   9  12  1   
 15  12  13  1   
 16  12  14  1   
 17  12  15  1   
 18  15  16  1   
 19  15  17  1   
 20  15  18  1   
 21  18  19  1   
 22  18  20  1   
 23  18  21  1   
 24  21  22  1   
 25  21  23  1   
 26  24  25  1   
 27  24  26  ar  
 28  26  27  1   
 29  26  44  ar  
 30  27  28  1   
 31  27  29  1   
 32  27  30  1   
 33  30  31  1   
 34  30  32  1   
 35  30  41  1   
 36  32  33  1   
 37  32  34  1   
 38  32  35  1   
 39  35  36  1   
 40  35  37  1   
 41  35  38  1   
 42  38  39  1   
 43  38  40  1   
 44  38  41  1   
 45  41  42  1   
 46  41  43  1   
 47  44  45  1   
 48  44  46  ar  
 49  46  47  1   
@<TRIPOS>SUBSTRUCTURE
  1 ****   3 GROUP 4 **** **** 0
@<TRIPOS>PROPERTY_DATA
rseq	|	1
mseq	|	18
S	|	-6.74532222747803
rmsd_refine	|	1.21870934963226
E_conf	|	-88.693977355957
E_place	|	-71.5034408569336
E_score1	|	-10.6292715072632
E_refine	|	-30.178466796875
E_score2	|	-6.74532222747803
Field_1	|	17
Field_2	|	cc-2-28
E_orig	|	1.06392788887024
PLIF_pronum	|	1
PLIF_raw	|	[2,1790,117,4,0.7]
FP:PLIF	|	20
PLIF_ligidx	|	2

# MOE 2020.09 (io_trps.svl 2020.11)

@<TRIPOS>MOLECULE
2XQJ
50 52 1 0 0 
SMALL
USER_CHARGES


@<TRIPOS>ATOM
  1 C      -19.3770   -37.8030   -23.7100 C.ar  1 <1>  -0.1710 
  2 O      -18.8380   -36.9160   -24.4520 O.3   1 <1>  -0.8290 
  3 C      -20.7770   -37.9480   -23.6390 C.ar  1 <1>  -0.1440 
  4 C      -21.6520   -37.1750   -24.5920 C.3   1 <1>   0.4860 
  5 H1     -21.1010   -36.2980   -24.9050 H     1 <1>   0.0800 
  6 H2     -22.4960   -36.7720   -24.0480 H     1 <1>   0.0800 
  7 N      -22.0950   -38.0030   -25.7830 N.4   1 <1>  -0.9590 
  8 H      -23.0400   -38.3080   -25.6020 H     1 <1>   0.4500 
  9 C      -22.1390   -37.1810   -27.0240 C.3   1 <1>   0.3430 
 10 H1     -22.8580   -36.3810   -26.9290 H     1 <1>   0.0800 
 11 H2     -21.1990   -36.6720   -27.1750 H     1 <1>   0.0800 
 12 C      -22.4630   -37.9710   -28.2920 C.3   1 <1>  -0.1600 
 13 H1     -23.4860   -38.3310   -28.2150 H     1 <1>   0.0800 
 14 H2     -22.3990   -37.2940   -29.1420 H     1 <1>   0.0800 
 15 C      -21.5180   -39.1670   -28.4910 C.3   1 <1>  -0.1600 
 16 H1     -21.8400   -39.7590   -29.3490 H     1 <1>   0.0800 
 17 H2     -20.5100   -38.7970   -28.6720 H     1 <1>   0.0800 
 18 C      -21.4980   -40.0580   -27.2510 C.3   1 <1>  -0.1600 
 19 H1     -20.7090   -40.7990   -27.3340 H     1 <1>   0.0800 
 20 H2     -22.4240   -40.6160   -27.1790 H     1 <1>   0.0800 
 21 C      -21.2550   -39.2540   -25.9750 C.3   1 <1>   0.3430 
 22 H1     -20.2090   -38.9910   -25.9570 H     1 <1>   0.0800 
 23 H2     -21.3580   -39.9320   -25.1390 H     1 <1>   0.0800 
 24 C      -21.3480   -38.9360   -22.8610 C.ar  1 <1>  -0.1500 
 25 H      -22.4030   -39.0210   -22.8570 H     1 <1>   0.1500 
 26 C      -20.5550   -39.8480   -22.1590 C.ar  1 <1>  -0.1440 
 27 C      -21.1710   -40.9940   -21.3810 C.3   1 <1>   0.4860 
 28 H1     -20.6190   -41.1280   -20.4600 H     1 <1>   0.0800 
 29 H2     -20.9810   -41.9040   -21.9360 H     1 <1>   0.0800 
 30 N      -22.6310   -40.8140   -21.1280 N.4   1 <1>  -0.9590 
 31 H      -23.0180   -40.4600   -21.9900 H     1 <1>   0.4500 
 32 C      -23.4500   -42.0190   -20.8120 C.3   1 <1>   0.4230 
 33 C      -23.8890   -42.8010   -22.0550 C.3   1 <1>  -0.2400 
 34 H1     -24.5900   -43.5860   -21.7780 H     1 <1>   0.0800 
 35 H2     -23.0300   -43.2610   -22.5440 H     1 <1>   0.0800 
 36 H3     -24.3850   -42.1450   -22.7700 H     1 <1>   0.0800 
 37 C      -24.6460   -41.5250   -19.9780 C.3   1 <1>  -0.1600 
 38 H1     -25.5770   -41.6070   -20.5370 H     1 <1>   0.0800 
 39 H2     -24.7170   -42.1010   -19.0540 H     1 <1>   0.0800 
 40 C      -24.3820   -40.0460   -19.6860 C.3   1 <1>  -0.1600 
 41 H1     -24.5510   -39.7810   -18.6430 H     1 <1>   0.0800 
 42 H2     -24.9960   -39.4450   -20.3560 H     1 <1>   0.0800 
 43 C      -22.9480   -39.8040   -20.0970 C.3   1 <1>   0.3430 
 44 H1     -22.3110   -39.9080   -19.2280 H     1 <1>   0.0800 
 45 H2     -22.8190   -38.7830   -20.4310 H     1 <1>   0.0800 
 46 C      -19.1710   -39.7140   -22.2400 C.ar  1 <1>  -0.1500 
 47 H      -18.5480   -40.3970   -21.7460 H     1 <1>   0.1500 
 48 C      -18.5860   -38.7070   -22.9810 C.ar  1 <1>  -0.1500 
 49 H      -17.5320   -38.6240   -23.0240 H     1 <1>   0.1500 
 50 H      -22.8890   -42.6970   -20.1820 H     1 <1>   0.0800 
@<TRIPOS>BOND
  1   1   2  1   
  2   1   3  ar  
  3   1  48  ar  
  4   3   4  1   
  5   3  24  ar  
  6   4   5  1   
  7   4   6  1   
  8   4   7  1   
  9   7   8  1   
 10   7   9  1   
 11   7  21  1   
 12   9  10  1   
 13   9  11  1   
 14   9  12  1   
 15  12  13  1   
 16  12  14  1   
 17  12  15  1   
 18  15  16  1   
 19  15  17  1   
 20  15  18  1   
 21  18  19  1   
 22  18  20  1   
 23  18  21  1   
 24  21  22  1   
 25  21  23  1   
 26  24  25  1   
 27  24  26  ar  
 28  26  27  1   
 29  26  46  ar  
 30  27  28  1   
 31  27  29  1   
 32  27  30  1   
 33  30  31  1   
 34  30  32  1   
 35  30  43  1   
 36  32  33  1   
 37  32  37  1   
 38  32  50  1   
 39  33  34  1   
 40  33  35  1   
 41  33  36  1   
 42  37  38  1   
 43  37  39  1   
 44  37  40  1   
 45  40  41  1   
 46  40  42  1   
 47  40  43  1   
 48  43  44  1   
 49  43  45  1   
 50  46  47  1   
 51  46  48  ar  
 52  48  49  1   
@<TRIPOS>SUBSTRUCTURE
  1 ****  24 GROUP 4 **** **** 0
@<TRIPOS>PROPERTY_DATA
rseq	|	1
mseq	|	19
S	|	-7.39118432998657
rmsd_refine	|	1.18466019630432
E_conf	|	-131.742660522461
E_place	|	-59.8155212402344
E_score1	|	-10.0251951217651
E_refine	|	-34.2309226989746
E_score2	|	-7.39118432998657
Field_1	|	18
Field_2	|	cc-2-40
E_orig	|	1.79999995231628
PLIF_pronum	|	1
PLIF_raw	|	[[],[],[],[],[]]
FP:PLIF	|	
PLIF_ligidx	|	[]

# MOE 2020.09 (io_trps.svl 2020.11)

@<TRIPOS>MOLECULE
2XQJ
50 52 1 0 0 
SMALL
USER_CHARGES


@<TRIPOS>ATOM
  1 C      -18.4960   -38.5290   -24.0500 C.ar  1 <1>  -0.1710 
  2 O      -17.3290   -38.0310   -24.2590 O.3   1 <1>  -0.8290 
  3 C      -18.7020   -39.9170   -23.8290 C.ar  1 <1>  -0.1440 
  4 C      -17.5710   -40.9330   -23.7850 C.3   1 <1>   0.4860 
  5 H1     -17.5360   -41.4000   -24.7600 H     1 <1>   0.0800 
  6 H2     -17.8960   -41.7360   -23.1380 H     1 <1>   0.0800 
  7 N      -16.1990   -40.4770   -23.3840 N.4   1 <1>  -0.9590 
  8 H      -15.9300   -39.8070   -24.0940 H     1 <1>   0.4500 
  9 C      -16.1440   -39.7080   -22.0910 C.3   1 <1>   0.3430 
 10 H1     -16.7980   -38.8460   -22.1080 H     1 <1>   0.0800 
 11 H2     -16.5150   -40.3040   -21.2700 H     1 <1>   0.0800 
 12 C      -14.7300   -39.2390   -21.7260 C.3   1 <1>  -0.1600 
 13 H1     -14.3900   -38.5240   -22.4770 H     1 <1>   0.0800 
 14 H2     -14.7500   -38.7400   -20.7600 H     1 <1>   0.0800 
 15 C      -13.7610   -40.4250   -21.6700 C.3   1 <1>  -0.1600 
 16 H1     -12.7500   -40.0780   -21.4530 H     1 <1>   0.0800 
 17 H2     -14.0890   -41.1040   -20.8900 H     1 <1>   0.0800 
 18 C      -13.7830   -41.1880   -22.9940 C.3   1 <1>  -0.1600 
 19 H1     -13.1640   -42.0810   -22.9150 H     1 <1>   0.0800 
 20 H2     -13.3720   -40.5440   -23.7630 H     1 <1>   0.0800 
 21 C      -15.2010   -41.6010   -23.4040 C.3   1 <1>   0.3430 
 22 H1     -15.5130   -42.3980   -22.7410 H     1 <1>   0.0800 
 23 H2     -15.1530   -42.0730   -24.3770 H     1 <1>   0.0800 
 24 C      -19.9900   -40.4090   -23.6820 C.ar  1 <1>  -0.1500 
 25 H      -20.1330   -41.4500   -23.5440 H     1 <1>   0.1500 
 26 C      -21.1040   -39.5710   -23.7170 C.ar  1 <1>  -0.1440 
 27 C      -22.4910   -40.1510   -23.5430 C.3   1 <1>   0.4860 
 28 H1     -22.7060   -40.7600   -24.4110 H     1 <1>   0.0800 
 29 H2     -23.2110   -39.3460   -23.6040 H     1 <1>   0.0800 
 30 N      -22.6550   -40.9370   -22.2730 N.4   1 <1>  -0.9590 
 31 H      -21.8970   -41.6030   -22.2390 H     1 <1>   0.4500 
 32 C      -22.5500   -40.0880   -21.0480 C.3   1 <1>   0.4230 
 33 C      -21.3890   -40.5300   -20.1490 C.3   1 <1>  -0.2400 
 34 H1     -21.3630   -39.9430   -19.2320 H     1 <1>   0.0800 
 35 H2     -20.4420   -40.3860   -20.6680 H     1 <1>   0.0800 
 36 H3     -21.4770   -41.5850   -19.8900 H     1 <1>   0.0800 
 37 C      -23.9130   -40.1210   -20.3440 C.3   1 <1>  -0.1600 
 38 H1     -23.8360   -40.0840   -19.2570 H     1 <1>   0.0800 
 39 H2     -24.4920   -39.2650   -20.6930 H     1 <1>   0.0800 
 40 C      -24.5910   -41.4020   -20.8260 C.3   1 <1>  -0.1600 
 41 H1     -25.6690   -41.2720   -20.9250 H     1 <1>   0.0800 
 42 H2     -24.3690   -42.2150   -20.1330 H     1 <1>   0.0800 
 43 C      -23.9350   -41.7080   -22.1730 C.3   1 <1>   0.3430 
 44 H1     -24.6170   -41.4420   -22.9640 H     1 <1>   0.0800 
 45 H2     -23.7960   -42.7760   -22.2810 H     1 <1>   0.0800 
 46 C      -20.9080   -38.2030   -23.8980 C.ar  1 <1>  -0.1500 
 47 H      -21.7390   -37.5460   -23.9170 H     1 <1>   0.1500 
 48 C      -19.6320   -37.6890   -24.0590 C.ar  1 <1>  -0.1500 
 49 H      -19.5000   -36.6470   -24.2020 H     1 <1>   0.1500 
 50 H      -22.3580   -39.0560   -21.3130 H     1 <1>   0.0800 
@<TRIPOS>BOND
  1   1   2  1   
  2   1   3  ar  
  3   1  48  ar  
  4   3   4  1   
  5   3  24  ar  
  6   4   5  1   
  7   4   6  1   
  8   4   7  1   
  9   7   8  1   
 10   7   9  1   
 11   7  21  1   
 12   9  10  1   
 13   9  11  1   
 14   9  12  1   
 15  12  13  1   
 16  12  14  1   
 17  12  15  1   
 18  15  16  1   
 19  15  17  1   
 20  15  18  1   
 21  18  19  1   
 22  18  20  1   
 23  18  21  1   
 24  21  22  1   
 25  21  23  1   
 26  24  25  1   
 27  24  26  ar  
 28  26  27  1   
 29  26  46  ar  
 30  27  28  1   
 31  27  29  1   
 32  27  30  1   
 33  30  31  1   
 34  30  32  1   
 35  30  43  1   
 36  32  33  1   
 37  32  37  1   
 38  32  50  1   
 39  33  34  1   
 40  33  35  1   
 41  33  36  1   
 42  37  38  1   
 43  37  39  1   
 44  37  40  1   
 45  40  41  1   
 46  40  42  1   
 47  40  43  1   
 48  43  44  1   
 49  43  45  1   
 50  46  47  1   
 51  46  48  ar  
 52  48  49  1   
@<TRIPOS>SUBSTRUCTURE
  1 ****  24 GROUP 4 **** **** 0
@<TRIPOS>PROPERTY_DATA
rseq	|	1
mseq	|	19
S	|	-7.13023614883423
rmsd_refine	|	1.09164297580719
E_conf	|	-135.428451538086
E_place	|	-73.177375793457
E_score1	|	-11.3364562988281
E_refine	|	-36.1654777526855
E_score2	|	-7.13023614883423
Field_1	|	18
Field_2	|	cc-2-40
E_orig	|	1.4019181728363
PLIF_pronum	|	1
PLIF_raw	|	[[2,1,3,24,26,46,48],[1790,6787,6787,6787,6787,6787,6787],[117,438,438,438,438,438,438],[4,10,10,10,10,10,10],[1,0.7,0.7,0.7,0.7,0.7,0.7]]
FP:PLIF	|	20 14
PLIF_ligidx	|	[2,[1,3,24,26,46,48]]

# MOE 2020.09 (io_trps.svl 2020.11)

@<TRIPOS>MOLECULE
2XQJ
50 52 1 0 0 
SMALL
USER_CHARGES


@<TRIPOS>ATOM
  1 C      -18.4340   -38.3390   -23.9170 C.ar  1 <1>  -0.1710 
  2 O      -17.2580   -37.9810   -24.2920 O.3   1 <1>  -0.8290 
  3 C      -18.7120   -39.6500   -23.4530 C.ar  1 <1>  -0.1440 
  4 C      -17.6620   -40.7480   -23.4190 C.3   1 <1>   0.4860 
  5 H1     -17.7510   -41.2900   -24.3510 H     1 <1>   0.0800 
  6 H2     -17.9780   -41.4720   -22.6810 H     1 <1>   0.0800 
  7 N      -16.2330   -40.3600   -23.1860 N.4   1 <1>  -0.9590 
  8 H      -16.0070   -39.7350   -23.9510 H     1 <1>   0.4500 
  9 C      -16.0170   -39.5400   -21.9430 C.3   1 <1>   0.3430 
 10 H1     -16.6200   -38.6420   -21.9520 H     1 <1>   0.0800 
 11 H2     -16.3510   -40.0760   -21.0660 H     1 <1>   0.0800 
 12 C      -14.5520   -39.1440   -21.7220 C.3   1 <1>  -0.1600 
 13 H1     -14.2420   -38.4730   -22.5250 H     1 <1>   0.0800 
 14 H2     -14.4580   -38.6150   -20.7740 H     1 <1>   0.0800 
 15 C      -13.6450   -40.3810   -21.7120 C.3   1 <1>  -0.1600 
 16 H1     -12.6020   -40.0840   -21.6050 H     1 <1>   0.0800 
 17 H2     -13.9310   -41.0120   -20.8780 H     1 <1>   0.0800 
 18 C      -13.8310   -41.1980   -22.9910 C.3   1 <1>  -0.1600 
 19 H1     -13.2590   -42.1220   -22.9220 H     1 <1>   0.0800 
 20 H2     -13.4490   -40.6170   -23.8220 H     1 <1>   0.0800 
 21 C      -15.3020   -41.5390   -23.2540 C.3   1 <1>   0.3430 
 22 H1     -15.5940   -42.2940   -22.5360 H     1 <1>   0.0800 
 23 H2     -15.3710   -42.0440   -24.2080 H     1 <1>   0.0800 
 24 C      -19.9990   -39.9870   -23.0610 C.ar  1 <1>  -0.1500 
 25 H      -20.1810   -40.9720   -22.7160 H     1 <1>   0.1500 
 26 C      -21.0530   -39.0700   -23.1300 C.ar  1 <1>  -0.1440 
 27 C      -22.4700   -39.4440   -22.7350 C.3   1 <1>   0.4860 
 28 H1     -23.1510   -38.9580   -23.4220 H     1 <1>   0.0800 
 29 H2     -22.6750   -38.9600   -21.7900 H     1 <1>   0.0800 
 30 N      -22.7490   -40.9200   -22.6520 N.4   1 <1>  -0.9590 
 31 H      -21.9740   -41.3460   -22.1670 H     1 <1>   0.4500 
 32 C      -23.9700   -41.3000   -21.8960 C.3   1 <1>   0.4230 
 33 C      -23.8200   -41.2600   -20.3750 C.3   1 <1>  -0.2400 
 34 H1     -24.7520   -41.5560   -19.8920 H     1 <1>   0.0800 
 35 H2     -23.5630   -40.2560   -20.0370 H     1 <1>   0.0800 
 36 H3     -23.0350   -41.9500   -20.0680 H     1 <1>   0.0800 
 37 C      -24.3940   -42.6800   -22.4110 C.3   1 <1>  -0.1600 
 38 H1     -24.0160   -43.4560   -21.7450 H     1 <1>   0.0800 
 39 H2     -25.4760   -42.7440   -22.4720 H     1 <1>   0.0800 
 40 C      -23.7440   -42.8440   -23.7900 C.3   1 <1>  -0.1600 
 41 H1     -24.4970   -42.8940   -24.5760 H     1 <1>   0.0800 
 42 H2     -23.1320   -43.7460   -23.8060 H     1 <1>   0.0800 
 43 C      -22.8570   -41.6120   -23.9710 C.3   1 <1>   0.3430 
 44 H1     -23.3120   -40.9710   -24.7150 H     1 <1>   0.0800 
 45 H2     -21.8990   -41.8890   -24.3910 H     1 <1>   0.0800 
 46 C      -20.7810   -37.7790   -23.5790 C.ar  1 <1>  -0.1500 
 47 H      -21.5600   -37.0620   -23.6310 H     1 <1>   0.1500 
 48 C      -19.5020   -37.4170   -23.9640 C.ar  1 <1>  -0.1500 
 49 H      -19.3200   -36.4320   -24.3060 H     1 <1>   0.1500 
 50 H      -24.7690   -40.6190   -22.1480 H     1 <1>   0.0800 
@<TRIPOS>BOND
  1   1   2  1   
  2   1   3  ar  
  3   1  48  ar  
  4   3   4  1   
  5   3  24  ar  
  6   4   5  1   
  7   4   6  1   
  8   4   7  1   
  9   7   8  1   
 10   7   9  1   
 11   7  21  1   
 12   9  10  1   
 13   9  11  1   
 14   9  12  1   
 15  12  13  1   
 16  12  14  1   
 17  12  15  1   
 18  15  16  1   
 19  15  17  1   
 20  15  18  1   
 21  18  19  1   
 22  18  20  1   
 23  18  21  1   
 24  21  22  1   
 25  21  23  1   
 26  24  25  1   
 27  24  26  ar  
 28  26  27  1   
 29  26  46  ar  
 30  27  28  1   
 31  27  29  1   
 32  27  30  1   
 33  30  31  1   
 34  30  32  1   
 35  30  43  1   
 36  32  33  1   
 37  32  37  1   
 38  32  50  1   
 39  33  34  1   
 40  33  35  1   
 41  33  36  1   
 42  37  38  1   
 43  37  39  1   
 44  37  40  1   
 45  40  41  1   
 46  40  42  1   
 47  40  43  1   
 48  43  44  1   
 49  43  45  1   
 50  46  47  1   
 51  46  48  ar  
 52  48  49  1   
@<TRIPOS>SUBSTRUCTURE
  1 ****  24 GROUP 4 **** **** 0
@<TRIPOS>PROPERTY_DATA
rseq	|	1
mseq	|	19
S	|	-7.02621555328369
rmsd_refine	|	1.00091433525085
E_conf	|	-134.830123901367
E_place	|	-73.9663696289062
E_score1	|	-10.3865251541138
E_refine	|	-36.5140266418457
E_score2	|	-7.02621555328369
Field_1	|	18
Field_2	|	cc-2-40
E_orig	|	1.80939030647278
PLIF_pronum	|	1
PLIF_raw	|	[[2,27,27,27,27,27,27,27,27,27,27,27,1,3,24,26,46,48],[1790,1242,1245,1248,1246,1243,1245,1249,1253,1255,1251,1248,6787,6787,6787,6787,6787,6787],[117,82,82,82,82,82,82,82,82,82,82,82,438,438,438,438,438,438],[4,10,10,10,10,10,10,10,10,10,10,10,10,10,10,10,10,10],[1.5,0.6,0.6,0.6,0.6,0.6,0.6,0.6,0.6,0.6,0.6,0.6,0.8,0.8,0.8,0.8,0.8,0.8]]
FP:PLIF	|	2 20 30 14
PLIF_ligidx	|	[[27,27,27,27,27,27,27,27,27,27,27],2,2,[1,3,24,26,46,48]]

# MOE 2020.09 (io_trps.svl 2020.11)

@<TRIPOS>MOLECULE
2XQJ
50 52 1 0 0 
SMALL
USER_CHARGES


@<TRIPOS>ATOM
  1 C      -18.4380   -38.4880   -24.0920 C.ar  1 <1>  -0.1710 
  2 O      -17.2590   -38.0000   -24.2440 O.3   1 <1>  -0.8290 
  3 C      -18.6690   -39.8770   -23.9040 C.ar  1 <1>  -0.1440 
  4 C      -17.5570   -40.9080   -23.7870 C.3   1 <1>   0.4860 
  5 H1     -17.5110   -41.4200   -24.7390 H     1 <1>   0.0800 
  6 H2     -17.9100   -41.6760   -23.1110 H     1 <1>   0.0800 
  7 N      -16.1850   -40.4610   -23.3810 N.4   1 <1>  -0.9590 
  8 H      -15.9120   -39.7880   -24.0850 H     1 <1>   0.4500 
  9 C      -16.1320   -39.7000   -22.0830 C.3   1 <1>   0.3430 
 10 H1     -16.7860   -38.8380   -22.0960 H     1 <1>   0.0800 
 11 H2     -16.5040   -40.3000   -21.2660 H     1 <1>   0.0800 
 12 C      -14.7180   -39.2330   -21.7150 C.3   1 <1>  -0.1600 
 13 H1     -14.3770   -38.5150   -22.4630 H     1 <1>   0.0800 
 14 H2     -14.7380   -38.7380   -20.7470 H     1 <1>   0.0800 
 15 C      -13.7500   -40.4200   -21.6640 C.3   1 <1>  -0.1600 
 16 H1     -12.7390   -40.0750   -21.4460 H     1 <1>   0.0800 
 17 H2     -14.0800   -41.1020   -20.8870 H     1 <1>   0.0800 
 18 C      -13.7730   -41.1790   -22.9910 C.3   1 <1>  -0.1600 
 19 H1     -13.1550   -42.0730   -22.9150 H     1 <1>   0.0800 
 20 H2     -13.3620   -40.5310   -23.7570 H     1 <1>   0.0800 
 21 C      -15.1910   -41.5880   -23.4020 C.3   1 <1>   0.3430 
 22 H1     -15.5060   -42.3850   -22.7410 H     1 <1>   0.0800 
 23 H2     -15.1440   -42.0580   -24.3760 H     1 <1>   0.0800 
 24 C      -19.9680   -40.3600   -23.8690 C.ar  1 <1>  -0.1500 
 25 H      -20.1260   -41.4030   -23.7710 H     1 <1>   0.1500 
 26 C      -21.0710   -39.5110   -23.9730 C.ar  1 <1>  -0.1440 
 27 C      -22.4730   -40.0810   -23.9740 C.3   1 <1>   0.4860 
 28 H1     -22.6560   -40.4770   -24.9650 H     1 <1>   0.0800 
 29 H2     -23.1820   -39.2680   -23.8880 H     1 <1>   0.0800 
 30 N      -22.7080   -41.1300   -22.9270 N.4   1 <1>  -0.9590 
 31 H      -21.8090   -41.5380   -22.7180 H     1 <1>   0.4500 
 32 C      -23.2430   -40.6060   -21.6300 C.3   1 <1>   0.4230 
 33 C      -22.1550   -40.4660   -20.5600 C.3   1 <1>  -0.2400 
 34 H1     -22.5530   -39.9700   -19.6750 H     1 <1>   0.0800 
 35 H2     -21.3240   -39.8760   -20.9430 H     1 <1>   0.0800 
 36 H3     -21.7680   -41.4450   -20.2720 H     1 <1>   0.0800 
 37 C      -24.3910   -41.5310   -21.1850 C.3   1 <1>  -0.1600 
 38 H1     -24.3150   -41.8240   -20.1370 H     1 <1>   0.0800 
 39 H2     -25.3390   -41.0190   -21.3470 H     1 <1>   0.0800 
 40 C      -24.3130   -42.7510   -22.1020 C.3   1 <1>  -0.1600 
 41 H1     -23.6930   -43.5090   -21.6240 H     1 <1>   0.0800 
 42 H2     -25.2920   -43.1580   -22.3440 H     1 <1>   0.0800 
 43 C      -23.5920   -42.2540   -23.3460 C.3   1 <1>   0.3430 
 44 H1     -24.3310   -41.9280   -24.0650 H     1 <1>   0.0800 
 45 H2     -23.0650   -43.0650   -23.8320 H     1 <1>   0.0800 
 46 C      -20.8510   -38.1410   -24.0970 C.ar  1 <1>  -0.1500 
 47 H      -21.6740   -37.4760   -24.1620 H     1 <1>   0.1500 
 48 C      -19.5640   -37.6360   -24.1500 C.ar  1 <1>  -0.1500 
 49 H      -19.4140   -36.5920   -24.2540 H     1 <1>   0.1500 
 50 H      -23.6710   -39.6220   -21.7730 H     1 <1>   0.0800 
@<TRIPOS>BOND
  1   1   2  1   
  2   1   3  ar  
  3   1  48  ar  
  4   3   4  1   
  5   3  24  ar  
  6   4   5  1   
  7   4   6  1   
  8   4   7  1   
  9   7   8  1   
 10   7   9  1   
 11   7  21  1   
 12   9  10  1   
 13   9  11  1   
 14   9  12  1   
 15  12  13  1   
 16  12  14  1   
 17  12  15  1   
 18  15  16  1   
 19  15  17  1   
 20  15  18  1   
 21  18  19  1   
 22  18  20  1   
 23  18  21  1   
 24  21  22  1   
 25  21  23  1   
 26  24  25  1   
 27  24  26  ar  
 28  26  27  1   
 29  26  46  ar  
 30  27  28  1   
 31  27  29  1   
 32  27  30  1   
 33  30  31  1   
 34  30  32  1   
 35  30  43  1   
 36  32  33  1   
 37  32  37  1   
 38  32  50  1   
 39  33  34  1   
 40  33  35  1   
 41  33  36  1   
 42  37  38  1   
 43  37  39  1   
 44  37  40  1   
 45  40  41  1   
 46  40  42  1   
 47  40  43  1   
 48  43  44  1   
 49  43  45  1   
 50  46  47  1   
 51  46  48  ar  
 52  48  49  1   
@<TRIPOS>SUBSTRUCTURE
  1 ****  24 GROUP 4 **** **** 0
@<TRIPOS>PROPERTY_DATA
rseq	|	1
mseq	|	19
S	|	-6.97509717941284
rmsd_refine	|	1.44283366203308
E_conf	|	-133.43586730957
E_place	|	-62.6154518127441
E_score1	|	-10.3068389892578
E_refine	|	-35.9646797180176
E_score2	|	-6.97509717941284
Field_1	|	18
Field_2	|	cc-2-40
E_orig	|	0.609401643276215
PLIF_pronum	|	1
PLIF_raw	|	[[2,1,3,24,26,46,48],[1790,6787,6787,6787,6787,6787,6787],[117,438,438,438,438,438,438],[4,10,10,10,10,10,10],[1.1,0.8,0.8,0.8,0.8,0.8,0.8]]
FP:PLIF	|	20 14
PLIF_ligidx	|	[2,[1,3,24,26,46,48]]

# MOE 2020.09 (io_trps.svl 2020.11)

@<TRIPOS>MOLECULE
2XQJ
50 52 1 0 0 
SMALL
USER_CHARGES


@<TRIPOS>ATOM
  1 C      -18.4360   -38.4040   -24.0140 C.ar  1 <1>  -0.1710 
  2 O      -17.2870   -37.9030   -24.3010 O.3   1 <1>  -0.8290 
  3 C      -18.6290   -39.8020   -23.8850 C.ar  1 <1>  -0.1440 
  4 C      -17.4960   -40.8020   -24.0230 C.3   1 <1>   0.4860 
  5 H1     -17.4250   -41.0620   -25.0710 H     1 <1>   0.0800 
  6 H2     -17.8290   -41.7210   -23.5610 H     1 <1>   0.0800 
  7 N      -16.1440   -40.4210   -23.4880 N.4   1 <1>  -0.9590 
  8 H      -15.7940   -39.7350   -24.1430 H     1 <1>   0.4500 
  9 C      -16.1540   -39.7030   -22.1640 C.3   1 <1>   0.3430 
 10 H1     -16.7880   -38.8270   -22.1830 H     1 <1>   0.0800 
 11 H2     -16.5830   -40.3220   -21.3900 H     1 <1>   0.0800 
 12 C      -14.7540   -39.2750   -21.7070 C.3   1 <1>  -0.1600 
 13 H1     -14.8180   -38.8100   -20.7260 H     1 <1>   0.0800 
 14 H2     -14.3610   -38.5410   -22.4110 H     1 <1>   0.0800 
 15 C      -13.8100   -40.4800   -21.6410 C.3   1 <1>  -0.1600 
 16 H1     -12.8060   -40.1590   -21.3640 H     1 <1>   0.0800 
 17 H2     -14.1900   -41.1750   -20.8970 H     1 <1>   0.0800 
 18 C      -13.7800   -41.2010   -22.9890 C.3   1 <1>  -0.1600 
 19 H1     -13.1770   -42.1050   -22.9110 H     1 <1>   0.0800 
 20 H2     -13.3270   -40.5360   -23.7170 H     1 <1>   0.0800 
 21 C      -15.1830   -41.5750   -23.4790 C.3   1 <1>   0.3430 
 22 H1     -15.5500   -42.3740   -22.8490 H     1 <1>   0.0800 
 23 H2     -15.0960   -42.0290   -24.4570 H     1 <1>   0.0800 
 24 C      -19.8970   -40.3070   -23.6490 C.ar  1 <1>  -0.1500 
 25 H      -20.0260   -41.3560   -23.6100 H     1 <1>   0.1500 
 26 C      -20.9990   -39.4710   -23.4700 C.ar  1 <1>  -0.1440 
 27 C      -22.3730   -40.0500   -23.1940 C.3   1 <1>   0.4860 
 28 H1     -22.6000   -40.7520   -23.9850 H     1 <1>   0.0800 
 29 H2     -23.0970   -39.2600   -23.3430 H     1 <1>   0.0800 
 30 N      -22.5490   -40.6890   -21.8370 N.4   1 <1>  -0.9590 
 31 H      -22.2900   -40.0020   -21.1450 H     1 <1>   0.4500 
 32 C      -23.9630   -41.1000   -21.5520 C.3   1 <1>   0.4230 
 33 C      -24.6330   -40.2360   -20.4800 C.3   1 <1>  -0.2400 
 34 H1     -25.6610   -40.5660   -20.3280 H     1 <1>   0.0800 
 35 H2     -24.6500   -39.1910   -20.7900 H     1 <1>   0.0800 
 36 H3     -24.1020   -40.3090   -19.5310 H     1 <1>   0.0800 
 37 C      -23.9660   -42.5930   -21.1820 C.3   1 <1>  -0.1600 
 38 H1     -24.5960   -42.8130   -20.3190 H     1 <1>   0.0800 
 39 H2     -24.3190   -43.1600   -22.0450 H     1 <1>   0.0800 
 40 C      -22.5140   -42.9620   -20.9000 C.3   1 <1>  -0.1600 
 41 H1     -22.2680   -43.9530   -21.2800 H     1 <1>   0.0800 
 42 H2     -22.3150   -42.9080   -19.8310 H     1 <1>   0.0800 
 43 C      -21.6970   -41.9010   -21.6180 C.3   1 <1>   0.3430 
 44 H1     -21.3820   -42.3290   -22.5600 H     1 <1>   0.0800 
 45 H2     -20.7800   -41.6950   -21.0810 H     1 <1>   0.0800 
 46 C      -20.8100   -38.0920   -23.5560 C.ar  1 <1>  -0.1500 
 47 H      -21.6310   -37.4340   -23.4230 H     1 <1>   0.1500 
 48 C      -19.5580   -37.5660   -23.8300 C.ar  1 <1>  -0.1500 
 49 H      -19.4370   -36.5160   -23.9110 H     1 <1>   0.1500 
 50 H      -24.5650   -41.0040   -22.4440 H     1 <1>   0.0800 
@<TRIPOS>BOND
  1   1   2  1   
  2   1   3  ar  
  3   1  48  ar  
  4   3   4  1   
  5   3  24  ar  
  6   4   5  1   
  7   4   6  1   
  8   4   7  1   
  9   7   8  1   
 10   7   9  1   
 11   7  21  1   
 12   9  10  1   
 13   9  11  1   
 14   9  12  1   
 15  12  13  1   
 16  12  14  1   
 17  12  15  1   
 18  15  16  1   
 19  15  17  1   
 20  15  18  1   
 21  18  19  1   
 22  18  20  1   
 23  18  21  1   
 24  21  22  1   
 25  21  23  1   
 26  24  25  1   
 27  24  26  ar  
 28  26  27  1   
 29  26  46  ar  
 30  27  28  1   
 31  27  29  1   
 32  27  30  1   
 33  30  31  1   
 34  30  32  1   
 35  30  43  1   
 36  32  33  1   
 37  32  37  1   
 38  32  50  1   
 39  33  34  1   
 40  33  35  1   
 41  33  36  1   
 42  37  38  1   
 43  37  39  1   
 44  37  40  1   
 45  40  41  1   
 46  40  42  1   
 47  40  43  1   
 48  43  44  1   
 49  43  45  1   
 50  46  47  1   
 51  46  48  ar  
 52  48  49  1   
@<TRIPOS>SUBSTRUCTURE
  1 ****  24 GROUP 4 **** **** 0
@<TRIPOS>PROPERTY_DATA
rseq	|	1
mseq	|	19
S	|	-6.94537687301636
rmsd_refine	|	1.91333377361298
E_conf	|	-133.655044555664
E_place	|	-49.3986511230469
E_score1	|	-9.80590915679932
E_refine	|	-35.7340774536133
E_score2	|	-6.94537687301636
Field_1	|	18
Field_2	|	cc-2-40
E_orig	|	0.600000023841858
PLIF_pronum	|	1
PLIF_raw	|	[2,1790,117,4,1.7]
FP:PLIF	|	20 30
PLIF_ligidx	|	[2,2]

# MOE 2020.09 (io_trps.svl 2020.11)

@<TRIPOS>MOLECULE
2XQJ
50 52 1 0 0 
SMALL
USER_CHARGES


@<TRIPOS>ATOM
  1 C      -20.4880   -38.2780   -23.0340 C.ar  1 <1>  -0.1710 
  2 O      -21.5710   -37.6270   -22.8230 O.3   1 <1>  -0.8290 
  3 C      -20.3160   -39.6130   -22.5930 C.ar  1 <1>  -0.1440 
  4 C      -21.3910   -40.3480   -21.8220 C.3   1 <1>   0.4870 
  5 H1     -21.1260   -41.3960   -21.8190 H     1 <1>   0.0800 
  6 H2     -21.2900   -40.0660   -20.7830 H     1 <1>   0.0800 
  7 N      -22.8010   -40.1660   -22.2890 N.4   1 <1>  -0.9590 
  8 H      -22.7280   -39.6490   -23.1580 H     1 <1>   0.4500 
  9 C      -23.4930   -41.4750   -22.5510 C.3   1 <1>   0.3430 
 10 H1     -22.8760   -42.1390   -23.1410 H     1 <1>   0.0800 
 11 H2     -24.3660   -41.3240   -23.1670 H     1 <1>   0.0800 
 12 C      -23.9450   -42.2180   -21.2810 C.3   1 <1>  -0.1600 
 13 H1     -23.0600   -42.5860   -20.7590 H     1 <1>   0.0800 
 14 H2     -24.5510   -43.0770   -21.5690 H     1 <1>   0.0800 
 15 C      -24.7480   -41.3140   -20.3290 C.3   1 <1>  -0.1600 
 16 H1     -24.9350   -41.8420   -19.3920 H     1 <1>   0.0800 
 17 H2     -25.7050   -41.0670   -20.7900 H     1 <1>   0.0800 
 18 C      -23.9730   -40.0170   -20.0500 C.3   1 <1>  -0.1600 
 19 H1     -24.5650   -39.3500   -19.4310 H     1 <1>   0.0800 
 20 H2     -23.0590   -40.2450   -19.5080 H     1 <1>   0.0800 
 21 C      -23.5870   -39.3000   -21.3480 C.3   1 <1>   0.3430 
 22 H1     -23.0500   -38.3940   -21.0980 H     1 <1>   0.0800 
 23 H2     -24.4910   -38.9410   -21.8170 H     1 <1>   0.0800 
 24 C      -19.1150   -40.2650   -22.8100 C.ar  1 <1>  -0.1500 
 25 H      -18.9960   -41.2620   -22.4730 H     1 <1>   0.1500 
 26 C      -18.0490   -39.6250   -23.4380 C.ar  1 <1>  -0.1440 
 27 C      -16.7220   -40.3240   -23.5350 C.3   1 <1>   0.4860 
 28 H1     -16.8750   -41.2580   -24.0590 H     1 <1>   0.0800 
 29 H2     -16.0710   -39.7560   -24.1830 H     1 <1>   0.0800 
 30 N      -16.1020   -40.5470   -22.1940 N.4   1 <1>  -0.9590 
 31 H      -16.8500   -40.8980   -21.6160 H     1 <1>   0.4500 
 32 C      -15.0400   -41.5950   -22.1950 C.3   1 <1>   0.3430 
 33 H1     -14.8790   -41.9470   -21.1860 H     1 <1>   0.0800 
 34 H2     -15.3430   -42.4790   -22.7410 H     1 <1>   0.0800 
 35 C      -13.6920   -41.1140   -22.7350 C.3   1 <1>  -0.1600 
 36 H1     -13.7890   -40.9300   -23.8000 H     1 <1>   0.0800 
 37 H2     -12.9610   -41.9060   -22.6000 H     1 <1>   0.0800 
 38 C      -13.2100   -39.8350   -22.0370 C.3   1 <1>  -0.1600 
 39 H1     -12.9590   -40.0670   -21.0010 H     1 <1>   0.0800 
 40 H2     -12.3170   -39.4650   -22.5360 H     1 <1>   0.0800 
 41 C      -14.2960   -38.7500   -22.0620 C.3   1 <1>  -0.1600 
 42 H1     -14.4360   -38.3980   -23.0830 H     1 <1>   0.0800 
 43 H2     -13.9830   -37.9060   -21.4470 H     1 <1>   0.0800 
 44 C      -15.6340   -39.2800   -21.5330 C.3   1 <1>   0.3430 
 45 H1     -15.5170   -39.4390   -20.4690 H     1 <1>   0.0800 
 46 H2     -16.3750   -38.4950   -21.6010 H     1 <1>   0.0800 
 47 C      -18.2140   -38.3180   -23.8890 C.ar  1 <1>  -0.1500 
 48 H      -17.4120   -37.8190   -24.3640 H     1 <1>   0.1500 
 49 C      -19.4140   -37.6560   -23.7040 C.ar  1 <1>  -0.1500 
 50 H      -19.5340   -36.6620   -24.0510 H     1 <1>   0.1500 
@<TRIPOS>BOND
  1   1   2  1   
  2   1   3  ar  
  3   1  49  ar  
  4   3   4  1   
  5   3  24  ar  
  6   4   5  1   
  7   4   6  1   
  8   4   7  1   
  9   7   8  1   
 10   7   9  1   
 11   7  21  1   
 12   9  10  1   
 13   9  11  1   
 14   9  12  1   
 15  12  13  1   
 16  12  14  1   
 17  12  15  1   
 18  15  16  1   
 19  15  17  1   
 20  15  18  1   
 21  18  19  1   
 22  18  20  1   
 23  18  21  1   
 24  21  22  1   
 25  21  23  1   
 26  24  25  1   
 27  24  26  ar  
 28  26  27  1   
 29  26  47  ar  
 30  27  28  1   
 31  27  29  1   
 32  27  30  1   
 33  30  31  1   
 34  30  32  1   
 35  30  44  1   
 36  32  33  1   
 37  32  34  1   
 38  32  35  1   
 39  35  36  1   
 40  35  37  1   
 41  35  38  1   
 42  38  39  1   
 43  38  40  1   
 44  38  41  1   
 45  41  42  1   
 46  41  43  1   
 47  41  44  1   
 48  44  45  1   
 49  44  46  1   
 50  47  48  1   
 51  47  49  ar  
 52  49  50  1   
@<TRIPOS>SUBSTRUCTURE
  1 ****  24 GROUP 4 **** **** 0
@<TRIPOS>PROPERTY_DATA
rseq	|	1
mseq	|	20
S	|	-7.38550996780396
rmsd_refine	|	1.76510548591614
E_conf	|	-119.337127685547
E_place	|	-72.953254699707
E_score1	|	-10.1762313842773
E_refine	|	-34.6861343383789
E_score2	|	-7.38550996780396
Field_1	|	19
Field_2	|	CM1-25
E_orig	|	1.42954289913177
PLIF_pronum	|	1
PLIF_raw	|	[2,6787,438,7,1.890871588]
FP:PLIF	|	4
PLIF_ligidx	|	2

# MOE 2020.09 (io_trps.svl 2020.11)

@<TRIPOS>MOLECULE
2XQJ
50 52 1 0 0 
SMALL
USER_CHARGES


@<TRIPOS>ATOM
  1 C      -18.2520   -38.5230   -23.8760 C.ar  1 <1>  -0.1710 
  2 O      -17.2680   -37.8240   -24.3100 O.3   1 <1>  -0.8290 
  3 C      -18.0650   -39.8600   -23.4740 C.ar  1 <1>  -0.1440 
  4 C      -16.6870   -40.4590   -23.4990 C.3   1 <1>   0.4870 
  5 H1     -16.7600   -41.4370   -23.9550 H     1 <1>   0.0800 
  6 H2     -16.0710   -39.8940   -24.1840 H     1 <1>   0.0800 
  7 N      -16.0730   -40.5350   -22.1420 N.4   1 <1>  -0.9590 
  8 H      -16.8090   -40.8610   -21.5370 H     1 <1>   0.4500 
  9 C      -14.9670   -41.5280   -22.0610 C.3   1 <1>   0.3430 
 10 H1     -15.2400   -42.4740   -22.5100 H     1 <1>   0.0800 
 11 H2     -14.7650   -41.7700   -21.0280 H     1 <1>   0.0800 
 12 C      -13.6600   -41.0410   -22.6840 C.3   1 <1>  -0.1600 
 13 H1     -13.7960   -40.9450   -23.7580 H     1 <1>   0.0800 
 14 H2     -12.8940   -41.7890   -22.5080 H     1 <1>   0.0800 
 15 C      -13.2190   -39.6950   -22.0970 C.3   1 <1>  -0.1600 
 16 H1     -12.3500   -39.3340   -22.6420 H     1 <1>   0.0800 
 17 H2     -12.9470   -39.8380   -21.0500 H     1 <1>   0.0800 
 18 C      -14.3470   -38.6550   -22.1850 C.3   1 <1>  -0.1600 
 19 H1     -14.0600   -37.7580   -21.6370 H     1 <1>   0.0800 
 20 H2     -14.5130   -38.3800   -23.2250 H     1 <1>   0.0800 
 21 C      -15.6620   -39.1920   -21.6090 C.3   1 <1>   0.3430 
 22 H1     -16.4370   -38.4520   -21.7580 H     1 <1>   0.0800 
 23 H2     -15.5450   -39.2410   -20.5360 H     1 <1>   0.0800 
 24 C      -19.1220   -40.6080   -22.9860 C.ar  1 <1>  -0.1500 
 25 H      -18.9530   -41.6090   -22.6830 H     1 <1>   0.1500 
 26 C      -20.3980   -40.0650   -22.8690 C.ar  1 <1>  -0.1440 
 27 C      -21.4700   -40.9480   -22.2700 C.3   1 <1>   0.4860 
 28 H1     -21.2250   -41.9620   -22.5570 H     1 <1>   0.0800 
 29 H2     -21.3270   -40.9590   -21.1980 H     1 <1>   0.0800 
 30 N      -22.8960   -40.6530   -22.6140 N.4   1 <1>  -0.9590 
 31 H      -22.8970   -40.3030   -23.5630 H     1 <1>   0.4500 
 32 C      -23.7210   -41.9140   -22.5970 C.3   1 <1>   0.3430 
 33 H1     -24.6520   -41.7710   -23.1250 H     1 <1>   0.0800 
 34 H2     -23.2360   -42.7130   -23.1420 H     1 <1>   0.0800 
 35 C      -24.0630   -42.4200   -21.1880 C.3   1 <1>  -0.1600 
 36 H1     -23.1450   -42.7410   -20.6930 H     1 <1>   0.0800 
 37 H2     -24.7170   -43.2860   -21.2750 H     1 <1>   0.0800 
 38 C      -24.7400   -41.3300   -20.3420 C.3   1 <1>  -0.1600 
 39 H1     -25.7110   -41.0880   -20.7780 H     1 <1>   0.0800 
 40 H2     -24.8940   -41.6960   -19.3260 H     1 <1>   0.0800 
 41 C      -23.8670   -40.0660   -20.3170 C.3   1 <1>  -0.1600 
 42 H1     -22.9480   -40.2720   -19.7690 H     1 <1>   0.0800 
 43 H2     -24.3980   -39.2680   -19.8020 H     1 <1>   0.0800 
 44 C      -23.4950   -39.5870   -21.7280 C.3   1 <1>   0.3430 
 45 H1     -22.8400   -38.7310   -21.6350 H     1 <1>   0.0800 
 46 H2     -24.3850   -39.1760   -22.1790 H     1 <1>   0.0800 
 47 C      -20.6020   -38.7410   -23.2760 C.ar  1 <1>  -0.1500 
 48 H      -21.5610   -38.3000   -23.2090 H     1 <1>   0.1500 
 49 C      -19.5520   -37.9830   -23.7720 C.ar  1 <1>  -0.1500 
 50 H      -19.7190   -36.9810   -24.0750 H     1 <1>   0.1500 
@<TRIPOS>BOND
  1   1   2  1   
  2   1   3  ar  
  3   1  49  ar  
  4   3   4  1   
  5   3  24  ar  
  6   4   5  1   
  7   4   6  1   
  8   4   7  1   
  9   7   8  1   
 10   7   9  1   
 11   7  21  1   
 12   9  10  1   
 13   9  11  1   
 14   9  12  1   
 15  12  13  1   
 16  12  14  1   
 17  12  15  1   
 18  15  16  1   
 19  15  17  1   
 20  15  18  1   
 21  18  19  1   
 22  18  20  1   
 23  18  21  1   
 24  21  22  1   
 25  21  23  1   
 26  24  25  1   
 27  24  26  ar  
 28  26  27  1   
 29  26  47  ar  
 30  27  28  1   
 31  27  29  1   
 32  27  30  1   
 33  30  31  1   
 34  30  32  1   
 35  30  44  1   
 36  32  33  1   
 37  32  34  1   
 38  32  35  1   
 39  35  36  1   
 40  35  37  1   
 41  35  38  1   
 42  38  39  1   
 43  38  40  1   
 44  38  41  1   
 45  41  42  1   
 46  41  43  1   
 47  41  44  1   
 48  44  45  1   
 49  44  46  1   
 50  47  48  1   
 51  47  49  ar  
 52  49  50  1   
@<TRIPOS>SUBSTRUCTURE
  1 ****  24 GROUP 4 **** **** 0
@<TRIPOS>PROPERTY_DATA
rseq	|	1
mseq	|	20
S	|	-7.08379507064819
rmsd_refine	|	1.74207019805908
E_conf	|	-121.867919921875
E_place	|	-52.0107078552246
E_score1	|	-10.8880014419556
E_refine	|	-33.1472244262695
E_score2	|	-7.08379507064819
Field_1	|	19
Field_2	|	CM1-25
E_orig	|	1
PLIF_pronum	|	1
PLIF_raw	|	[2,1790,117,4,2]
FP:PLIF	|	20 30
PLIF_ligidx	|	[2,2]

# MOE 2020.09 (io_trps.svl 2020.11)

@<TRIPOS>MOLECULE
2XQJ
50 52 1 0 0 
SMALL
USER_CHARGES


@<TRIPOS>ATOM
  1 C      -18.2100   -38.3600   -23.8070 C.ar  1 <1>  -0.1710 
  2 O      -17.1910   -37.7980   -24.3450 O.3   1 <1>  -0.8290 
  3 C      -18.1270   -39.6730   -23.3000 C.ar  1 <1>  -0.1440 
  4 C      -16.8170   -40.4140   -23.3830 C.3   1 <1>   0.4870 
  5 H1     -17.0190   -41.4020   -23.7750 H     1 <1>   0.0800 
  6 H2     -16.2020   -39.9520   -24.1430 H     1 <1>   0.0800 
  7 N      -16.1050   -40.4860   -22.0690 N.4   1 <1>  -0.9590 
  8 H      -16.8040   -40.7870   -21.4100 H     1 <1>   0.4500 
  9 C      -15.0160   -41.5050   -22.0410 C.3   1 <1>   0.3430 
 10 H1     -15.3270   -42.4410   -22.4860 H     1 <1>   0.0800 
 11 H2     -14.7810   -41.7620   -21.0170 H     1 <1>   0.0800 
 12 C      -13.7160   -41.0480   -22.7050 C.3   1 <1>  -0.1600 
 13 H1     -13.8840   -40.9580   -23.7740 H     1 <1>   0.0800 
 14 H2     -12.9570   -41.8090   -22.5470 H     1 <1>   0.0800 
 15 C      -13.2310   -39.7040   -22.1450 C.3   1 <1>  -0.1600 
 16 H1     -12.3700   -39.3630   -22.7140 H     1 <1>   0.0800 
 17 H2     -12.9330   -39.8420   -21.1040 H     1 <1>   0.0800 
 18 C      -14.3400   -38.6460   -22.2150 C.3   1 <1>  -0.1600 
 19 H1     -14.0170   -37.7420   -21.6990 H     1 <1>   0.0800 
 20 H2     -14.5450   -38.3920   -23.2530 H     1 <1>   0.0800 
 21 C      -15.6370   -39.1470   -21.5740 C.3   1 <1>   0.3430 
 22 H1     -16.4020   -38.3900   -21.6920 H     1 <1>   0.0800 
 23 H2     -15.4670   -39.1880   -20.5090 H     1 <1>   0.0800 
 24 C      -19.2100   -40.2510   -22.6590 C.ar  1 <1>  -0.1500 
 25 H      -19.1280   -41.2350   -22.2760 H     1 <1>   0.1500 
 26 C      -20.4000   -39.5480   -22.4850 C.ar  1 <1>  -0.1440 
 27 C      -21.5150   -40.1730   -21.6830 C.3   1 <1>   0.4860 
 28 H1     -21.2380   -41.1940   -21.4550 H     1 <1>   0.0800 
 29 H2     -21.5160   -39.6960   -20.7130 H     1 <1>   0.0800 
 30 N      -22.8720   -40.1140   -22.2990 N.4   1 <1>  -0.9590 
 31 H      -22.9410   -39.2140   -22.7550 H     1 <1>   0.4500 
 32 C      -23.0540   -41.1650   -23.3670 C.3   1 <1>   0.3430 
 33 H1     -23.8780   -40.9090   -24.0160 H     1 <1>   0.0800 
 34 H2     -22.2040   -41.2020   -24.0360 H     1 <1>   0.0800 
 35 C      -23.3150   -42.5810   -22.8280 C.3   1 <1>  -0.1600 
 36 H1     -22.4050   -42.9540   -22.3570 H     1 <1>   0.0800 
 37 H2     -23.5630   -43.2400   -23.6620 H     1 <1>   0.0800 
 38 C      -24.4580   -42.6040   -21.8030 C.3   1 <1>  -0.1600 
 39 H1     -25.3940   -42.3680   -22.3070 H     1 <1>   0.0800 
 40 H2     -24.5400   -43.5970   -21.3650 H     1 <1>   0.0800 
 41 C      -24.2090   -41.5790   -20.6900 C.3   1 <1>  -0.1600 
 42 H1     -23.3390   -41.8920   -20.1140 H     1 <1>   0.0800 
 43 H2     -25.0730   -41.5450   -20.0240 H     1 <1>   0.0800 
 44 C      -23.9520   -40.1750   -21.2530 C.3   1 <1>   0.3430 
 45 H1     -24.8860   -39.8090   -21.6480 H     1 <1>   0.0800 
 46 H2     -23.7440   -39.5050   -20.4300 H     1 <1>   0.0800 
 47 C      -20.5070   -38.2610   -23.0160 C.ar  1 <1>  -0.1500 
 48 H      -21.4080   -37.7130   -22.9070 H     1 <1>   0.1500 
 49 C      -19.4370   -37.6770   -23.6730 C.ar  1 <1>  -0.1500 
 50 H      -19.5290   -36.6970   -24.0680 H     1 <1>   0.1500 
@<TRIPOS>BOND
  1   1   2  1   
  2   1   3  ar  
  3   1  49  ar  
  4   3   4  1   
  5   3  24  ar  
  6   4   5  1   
  7   4   6  1   
  8   4   7  1   
  9   7   8  1   
 10   7   9  1   
 11   7  21  1   
 12   9  10  1   
 13   9  11  1   
 14   9  12  1   
 15  12  13  1   
 16  12  14  1   
 17  12  15  1   
 18  15  16  1   
 19  15  17  1   
 20  15  18  1   
 21  18  19  1   
 22  18  20  1   
 23  18  21  1   
 24  21  22  1   
 25  21  23  1   
 26  24  25  1   
 27  24  26  ar  
 28  26  27  1   
 29  26  47  ar  
 30  27  28  1   
 31  27  29  1   
 32  27  30  1   
 33  30  31  1   
 34  30  32  1   
 35  30  44  1   
 36  32  33  1   
 37  32  34  1   
 38  32  35  1   
 39  35  36  1   
 40  35  37  1   
 41  35  38  1   
 42  38  39  1   
 43  38  40  1   
 44  38  41  1   
 45  41  42  1   
 46  41  43  1   
 47  41  44  1   
 48  44  45  1   
 49  44  46  1   
 50  47  48  1   
 51  47  49  ar  
 52  49  50  1   
@<TRIPOS>SUBSTRUCTURE
  1 ****  24 GROUP 4 **** **** 0
@<TRIPOS>PROPERTY_DATA
rseq	|	1
mseq	|	20
S	|	-6.85098695755005
rmsd_refine	|	0.846299767494202
E_conf	|	-123.177841186523
E_place	|	-91.0831527709961
E_score1	|	-10.0113458633423
E_refine	|	-29.7682781219482
E_score2	|	-6.85098695755005
Field_1	|	19
Field_2	|	CM1-25
E_orig	|	0.800000011920929
PLIF_pronum	|	1
PLIF_raw	|	[[2,2,18,18,18,18,18,18,1,49,47,26,24,3],[1783,1790,3488,3492,3496,3498,3494,3491,6787,6787,6787,6787,6787,6787],[116,117,231,231,231,231,231,231,438,438,438,438,438,438],[4,4,10,10,10,10,10,10,10,10,10,10,10,10],[0.5,2.6,0.5,0.5,0.5,0.5,0.5,0.5,0.5,0.5,0.5,0.5,0.5,0.5]]
FP:PLIF	|	32 20 30 31 14
PLIF_ligidx	|	[2,2,2,[18,18,18,18,18,18],[1,49,47,26,24,3]]

# MOE 2020.09 (io_trps.svl 2020.11)

@<TRIPOS>MOLECULE
2XQJ
50 52 1 0 0 
SMALL
USER_CHARGES


@<TRIPOS>ATOM
  1 C      -18.8540   -38.1420   -23.8340 C.ar  1 <1>  -0.1710 
  2 O      -17.7160   -37.7480   -24.2780 O.3   1 <1>  -0.8290 
  3 C      -19.0310   -39.3960   -23.1910 C.ar  1 <1>  -0.1440 
  4 C      -17.8850   -40.3110   -22.7970 C.3   1 <1>   0.4870 
  5 H1     -18.2670   -41.3220   -22.8280 H     1 <1>   0.0800 
  6 H2     -17.6960   -40.1460   -21.7470 H     1 <1>   0.0800 
  7 N      -16.6120   -40.2190   -23.5660 N.4   1 <1>  -0.9590 
  8 H      -16.8960   -39.8030   -24.4440 H     1 <1>   0.4500 
  9 C      -15.6480   -39.2340   -22.9400 C.3   1 <1>   0.3430 
 10 H1     -16.1780   -38.3990   -22.5040 H     1 <1>   0.0800 
 11 H2     -15.0350   -38.7730   -23.7000 H     1 <1>   0.0800 
 12 C      -14.7040   -39.8060   -21.8800 C.3   1 <1>  -0.1600 
 13 H1     -15.2840   -40.0660   -20.9930 H     1 <1>   0.0800 
 14 H2     -13.9720   -39.0450   -21.6070 H     1 <1>   0.0800 
 15 C      -13.9830   -41.0480   -22.4030 C.3   1 <1>  -0.1600 
 16 H1     -13.3200   -41.4330   -21.6330 H     1 <1>   0.0800 
 17 H2     -13.3850   -40.7830   -23.2750 H     1 <1>   0.0800 
 18 C      -15.0300   -42.1000   -22.7970 C.3   1 <1>  -0.1600 
 19 H1     -14.5260   -42.9850   -23.1880 H     1 <1>   0.0800 
 20 H2     -15.6000   -42.3900   -21.9140 H     1 <1>   0.0800 
 21 C      -16.0050   -41.5720   -23.8600 C.3   1 <1>   0.3430 
 22 H1     -16.7700   -42.3190   -24.0220 H     1 <1>   0.0800 
 23 H2     -15.4760   -41.5570   -24.7990 H     1 <1>   0.0800 
 24 C      -20.3050   -39.8120   -22.8370 C.ar  1 <1>  -0.1500 
 25 H      -20.4260   -40.7730   -22.4100 H     1 <1>   0.1500 
 26 C      -21.4220   -38.9960   -23.0160 C.ar  1 <1>  -0.1440 
 27 C      -22.7960   -39.4590   -22.5820 C.3   1 <1>   0.4860 
 28 H1     -23.5210   -38.8140   -23.0620 H     1 <1>   0.0800 
 29 H2     -22.9800   -40.4240   -23.0360 H     1 <1>   0.0800 
 30 N      -23.0290   -39.5070   -21.0860 N.4   1 <1>  -0.9590 
 31 H      -22.7680   -38.5970   -20.7320 H     1 <1>   0.4500 
 32 C      -24.4690   -39.7090   -20.7420 C.3   1 <1>   0.3430 
 33 H1     -24.6380   -39.4950   -19.6950 H     1 <1>   0.0800 
 34 H2     -25.1020   -38.9980   -21.2540 H     1 <1>   0.0800 
 35 C      -24.9820   -41.1350   -21.0110 C.3   1 <1>  -0.1600 
 36 H1     -24.9520   -41.3270   -22.0810 H     1 <1>   0.0800 
 37 H2     -26.0140   -41.2060   -20.6720 H     1 <1>   0.0800 
 38 C      -24.1310   -42.2070   -20.3190 C.3   1 <1>  -0.1600 
 39 H1     -24.3080   -42.1560   -19.2460 H     1 <1>   0.0800 
 40 H2     -24.4310   -43.1970   -20.6660 H     1 <1>   0.0800 
 41 C      -22.6380   -41.9900   -20.6290 C.3   1 <1>  -0.1600 
 42 H1     -22.4570   -42.2320   -21.6770 H     1 <1>   0.0800 
 43 H2     -22.0370   -42.6660   -20.0190 H     1 <1>   0.0800 
 44 C      -22.1950   -40.5370   -20.3730 C.3   1 <1>   0.3430 
 45 H1     -22.2290   -40.3630   -19.3080 H     1 <1>   0.0800 
 46 H2     -21.1440   -40.4420   -20.6020 H     1 <1>   0.0800 
 47 C      -21.2440   -37.7380   -23.5880 C.ar  1 <1>  -0.1500 
 48 H      -22.0760   -37.0940   -23.7230 H     1 <1>   0.1500 
 49 C      -19.9890   -37.3190   -23.9950 C.ar  1 <1>  -0.1500 
 50 H      -19.8730   -36.3630   -24.4390 H     1 <1>   0.1500 
@<TRIPOS>BOND
  1   1   2  1   
  2   1   3  ar  
  3   1  49  ar  
  4   3   4  1   
  5   3  24  ar  
  6   4   5  1   
  7   4   6  1   
  8   4   7  1   
  9   7   8  1   
 10   7   9  1   
 11   7  21  1   
 12   9  10  1   
 13   9  11  1   
 14   9  12  1   
 15  12  13  1   
 16  12  14  1   
 17  12  15  1   
 18  15  16  1   
 19  15  17  1   
 20  15  18  1   
 21  18  19  1   
 22  18  20  1   
 23  18  21  1   
 24  21  22  1   
 25  21  23  1   
 26  24  25  1   
 27  24  26  ar  
 28  26  27  1   
 29  26  47  ar  
 30  27  28  1   
 31  27  29  1   
 32  27  30  1   
 33  30  31  1   
 34  30  32  1   
 35  30  44  1   
 36  32  33  1   
 37  32  34  1   
 38  32  35  1   
 39  35  36  1   
 40  35  37  1   
 41  35  38  1   
 42  38  39  1   
 43  38  40  1   
 44  38  41  1   
 45  41  42  1   
 46  41  43  1   
 47  41  44  1   
 48  44  45  1   
 49  44  46  1   
 50  47  48  1   
 51  47  49  ar  
 52  49  50  1   
@<TRIPOS>SUBSTRUCTURE
  1 ****  24 GROUP 4 **** **** 0
@<TRIPOS>PROPERTY_DATA
rseq	|	1
mseq	|	20
S	|	-6.82179737091064
rmsd_refine	|	1.32106709480286
E_conf	|	-115.639930725098
E_place	|	-70.9455184936523
E_score1	|	-11.1305131912231
E_refine	|	-34.2635154724121
E_score2	|	-6.82179737091064
Field_1	|	19
Field_2	|	CM1-25
E_orig	|	0.0433918982744217
PLIF_pronum	|	1
PLIF_raw	|	[[2,27,27,27,27,27,27,27,27,27,27,27,1,49,47,26,24,3],[1790,1242,1245,1248,1246,1243,1245,1249,1253,1255,1251,1248,6787,6787,6787,6787,6787,6787],[117,82,82,82,82,82,82,82,82,82,82,82,438,438,438,438,438,438],[4,10,10,10,10,10,10,10,10,10,10,10,10,10,10,10,10,10],[0.7,0.5,0.5,0.5,0.5,0.5,0.5,0.5,0.5,0.5,0.5,0.5,1.3,1.3,1.3,1.3,1.3,1.3]]
FP:PLIF	|	2 20 14 28
PLIF_ligidx	|	[[27,27,27,27,27,27,27,27,27,27,27],2,[1,49,47,26,24,3],[1,49,47,26,24,3]]

# MOE 2020.09 (io_trps.svl 2020.11)

@<TRIPOS>MOLECULE
2XQJ
50 52 1 0 0 
SMALL
USER_CHARGES


@<TRIPOS>ATOM
  1 C      -18.1150   -38.2460   -23.9520 C.ar  1 <1>  -0.1710 
  2 O      -17.0140   -37.7250   -24.3510 O.3   1 <1>  -0.8290 
  3 C      -18.1660   -39.5820   -23.5060 C.ar  1 <1>  -0.1440 
  4 C      -16.8890   -40.3930   -23.4960 C.3   1 <1>   0.4870 
  5 H1     -17.1210   -41.3760   -23.8800 H     1 <1>   0.0800 
  6 H2     -16.2180   -39.9800   -24.2370 H     1 <1>   0.0800 
  7 N      -16.2230   -40.4800   -22.1540 N.4   1 <1>  -0.9590 
  8 H      -16.9510   -40.7710   -21.5240 H     1 <1>   0.4500 
  9 C      -15.1470   -41.5220   -22.0930 C.3   1 <1>   0.3430 
 10 H1     -15.4550   -42.4450   -22.5680 H     1 <1>   0.0800 
 11 H2     -14.9630   -41.8050   -21.0660 H     1 <1>   0.0800 
 12 C      -13.8080   -41.0810   -22.6920 C.3   1 <1>  -0.1600 
 13 H1     -13.9260   -40.9720   -23.7670 H     1 <1>   0.0800 
 14 H2     -13.0670   -41.8570   -22.5160 H     1 <1>   0.0800 
 15 C      -13.3180   -39.7550   -22.0940 C.3   1 <1>  -0.1600 
 16 H1     -12.4250   -39.4260   -22.6220 H     1 <1>   0.0800 
 17 H2     -13.0680   -39.9080   -21.0440 H     1 <1>   0.0800 
 18 C      -14.4050   -38.6760   -22.2030 C.3   1 <1>  -0.1600 
 19 H1     -14.0880   -37.7840   -21.6630 H     1 <1>   0.0800 
 20 H2     -14.5510   -38.4070   -23.2470 H     1 <1>   0.0800 
 21 C      -15.7450   -39.1530   -21.6320 C.3   1 <1>   0.3430 
 22 H1     -16.4850   -38.3790   -21.7840 H     1 <1>   0.0800 
 23 H2     -15.6320   -39.2010   -20.5590 H     1 <1>   0.0800 
 24 C      -19.3600   -40.1280   -23.0560 C.ar  1 <1>  -0.1500 
 25 H      -19.3700   -41.1340   -22.7260 H     1 <1>   0.1500 
 26 C      -20.5360   -39.3690   -23.0330 C.ar  1 <1>  -0.1440 
 27 C      -21.8630   -39.9130   -22.5450 C.3   1 <1>   0.4860 
 28 H1     -22.3130   -39.1350   -21.9420 H     1 <1>   0.0800 
 29 H2     -22.5290   -39.9800   -23.3950 H     1 <1>   0.0800 
 30 N      -21.8230   -41.2100   -21.7820 N.4   1 <1>  -0.9590 
 31 H      -20.9010   -41.2740   -21.3750 H     1 <1>   0.4500 
 32 C      -22.8120   -41.2330   -20.6520 C.3   1 <1>   0.3430 
 33 H1     -22.5880   -42.0490   -19.9770 H     1 <1>   0.0800 
 34 H2     -22.7340   -40.3480   -20.0350 H     1 <1>   0.0800 
 35 C      -24.2710   -41.3970   -21.0970 C.3   1 <1>  -0.1600 
 36 H1     -24.5700   -40.5040   -21.6450 H     1 <1>   0.0800 
 37 H2     -24.9070   -41.4930   -20.2160 H     1 <1>   0.0800 
 38 C      -24.4490   -42.6300   -21.9940 C.3   1 <1>  -0.1600 
 39 H1     -24.2860   -43.5230   -21.3910 H     1 <1>   0.0800 
 40 H2     -25.4620   -42.6520   -22.3890 H     1 <1>   0.0800 
 41 C      -23.4500   -42.6180   -23.1610 C.3   1 <1>  -0.1600 
 42 H1     -23.7130   -41.8150   -23.8500 H     1 <1>   0.0800 
 43 H2     -23.5130   -43.5640   -23.7010 H     1 <1>   0.0800 
 44 C      -22.0060   -42.4080   -22.6810 C.3   1 <1>   0.3430 
 45 H1     -21.6980   -43.3140   -22.1750 H     1 <1>   0.0800 
 46 H2     -21.3590   -42.3590   -23.5470 H     1 <1>   0.0800 
 47 C      -20.4910   -38.0510   -23.4850 C.ar  1 <1>  -0.1500 
 48 H      -21.3720   -37.4600   -23.4840 H     1 <1>   0.1500 
 49 C      -19.3100   -37.4960   -23.9400 C.ar  1 <1>  -0.1500 
 50 H      -19.2970   -36.4940   -24.2830 H     1 <1>   0.1500 
@<TRIPOS>BOND
  1   1   2  1   
  2   1   3  ar  
  3   1  49  ar  
  4   3   4  1   
  5   3  24  ar  
  6   4   5  1   
  7   4   6  1   
  8   4   7  1   
  9   7   8  1   
 10   7   9  1   
 11   7  21  1   
 12   9  10  1   
 13   9  11  1   
 14   9  12  1   
 15  12  13  1   
 16  12  14  1   
 17  12  15  1   
 18  15  16  1   
 19  15  17  1   
 20  15  18  1   
 21  18  19  1   
 22  18  20  1   
 23  18  21  1   
 24  21  22  1   
 25  21  23  1   
 26  24  25  1   
 27  24  26  ar  
 28  26  27  1   
 29  26  47  ar  
 30  27  28  1   
 31  27  29  1   
 32  27  30  1   
 33  30  31  1   
 34  30  32  1   
 35  30  44  1   
 36  32  33  1   
 37  32  34  1   
 38  32  35  1   
 39  35  36  1   
 40  35  37  1   
 41  35  38  1   
 42  38  39  1   
 43  38  40  1   
 44  38  41  1   
 45  41  42  1   
 46  41  43  1   
 47  41  44  1   
 48  44  45  1   
 49  44  46  1   
 50  47  48  1   
 51  47  49  ar  
 52  49  50  1   
@<TRIPOS>SUBSTRUCTURE
  1 ****  24 GROUP 4 **** **** 0
@<TRIPOS>PROPERTY_DATA
rseq	|	1
mseq	|	20
S	|	-6.776930809021
rmsd_refine	|	1.66916179656982
E_conf	|	-121.996971130371
E_place	|	-50.7970771789551
E_score1	|	-10.3274536132812
E_refine	|	-30.5789852142334
E_score2	|	-6.776930809021
Field_1	|	19
Field_2	|	CM1-25
E_orig	|	1.02953863143921
PLIF_pronum	|	1
PLIF_raw	|	[[2,2,1,49,47,26,24,3],[1783,1790,6787,6787,6787,6787,6787,6787],[116,117,438,438,438,438,438,438],[4,4,10,10,10,10,10,10],[1,3.1,0.6,0.6,0.6,0.6,0.6,0.6]]
FP:PLIF	|	32 20 30 14
PLIF_ligidx	|	[2,2,2,[1,49,47,26,24,3]]

# MOE 2020.09 (io_trps.svl 2020.11)

